version 3
run Ping1-0-20221120-10:17:02-15710
attr configname Ping1
attr datetime 20221120-10:17:02
attr datetimef 20221120-101702
attr experiment Ping1
attr inifile omnetpp.ini
attr iterationvars ""
attr iterationvarsd ""
attr iterationvarsf ""
attr measurement ""
attr network Net
attr processid 15710
attr repetition 0
attr replication #0
attr resultdir results
attr runnumber 0
attr seedset 0
config image-path ../../../images
config description "host1 pinging host0"
config *.numHosts 2
config *.host[0].wlan[*].radio.transmitter.communicationRange 250m
config *.host[1].wlan[*].radio.transmitter.communicationRange 300m
config network Net
config **.constraintAreaMinX 0m
config **.constraintAreaMinY 0m
config **.constraintAreaMinZ 0m
config **.constraintAreaMaxX 600m
config **.constraintAreaMaxY 400m
config **.constraintAreaMaxZ 0m
config **.host*.mobility.typename MassMobility
config **.host*.mobility.initFromDisplayString false
config **.host*.mobility.changeInterval "truncnormal(2s, 0.5s)"
config **.host*.mobility.angleDelta "normal(0deg, 30deg)"
config **.host*.mobility.speed "truncnormal(20mps, 8mps)"
config **.host*.mobility.updateInterval 100ms
config *.host[0].numApps 0
config *.host[*].numApps 2
config *.host[*].app[*].typename PingApp
config *.host[*].app[*].destAddr "\"host[0]\""
config **.app[0].startTime uniform(1s,5s)
config **.app[1].startTime 5s+uniform(1s,5s)
config **.app[*].printPing true
config **.wlan[*].typename AckingWirelessInterface
config **.wlan[*].bitrate 2Mbps
config **.wlan[*].mac.headerLength 23B
config **.wlan[*].radio.typename UnitDiskRadio
config **.wlan[*].radio.transmitter.bitrate 2Mbps
config **.wlan[*].radio.transmitter.headerLength 96b
config **.wlan[*].radio.transmitter.interferenceRange 0m
config **.wlan[*].radio.transmitter.detectionRange 0m
config **.wlan[*].radio.receiver.ignoreInterference true

par Net.visualizer.sceneVisualizer typename "\"inet.visualizer.canvas.scene.SceneCanvasVisualizer\""
par Net.visualizer.sceneVisualizer visualizationTargetModule "\"^.^\""
par Net.visualizer.sceneVisualizer visualizationSubjectModule "\"^.^\""
par Net.visualizer.sceneVisualizer tags "\"\""
par Net.visualizer.sceneVisualizer physicalEnvironmentModule "\"physicalEnvironment\""
par Net.visualizer.sceneVisualizer networkNodeVisualizerModule "\"^.networkNodeVisualizer\""
par Net.visualizer.sceneVisualizer axisLength "nan m"
attr mutable ""
attr unit m
par Net.visualizer.sceneVisualizer animationSpeed 0
par Net.visualizer.sceneVisualizer sceneMinX "nan m"
attr unit m
par Net.visualizer.sceneVisualizer sceneMinY "nan m"
attr unit m
par Net.visualizer.sceneVisualizer sceneMinZ "nan m"
attr unit m
par Net.visualizer.sceneVisualizer sceneMaxX "nan m"
attr unit m
par Net.visualizer.sceneVisualizer sceneMaxY "nan m"
attr unit m
par Net.visualizer.sceneVisualizer sceneMaxZ "nan m"
attr unit m
par Net.visualizer.sceneVisualizer zIndex 0
par Net.visualizer.sceneVisualizer viewAngle "\"x right y down z out\""
attr mutable ""
par Net.visualizer.sceneVisualizer viewScale "\"1 1\""
attr mutable ""
par Net.visualizer.sceneVisualizer viewTranslation "\"0 0\""
attr mutable ""
par Net.visualizer.sceneVisualizer descriptionFigure "\"\""
par Net.visualizer.physicalEnvironmentVisualizer typename "\"inet.visualizer.canvas.environment.PhysicalEnvironmentCanvasVisualizer\""
par Net.visualizer.physicalEnvironmentVisualizer visualizationTargetModule "\"^.^\""
par Net.visualizer.physicalEnvironmentVisualizer visualizationSubjectModule "\"^.^\""
par Net.visualizer.physicalEnvironmentVisualizer tags "\"\""
par Net.visualizer.physicalEnvironmentVisualizer physicalEnvironmentModule "\"physicalEnvironment\""
par Net.visualizer.physicalEnvironmentVisualizer displayObjects true
par Net.visualizer.physicalEnvironmentVisualizer zIndex 0
par Net.visualizer.networkNodeVisualizer typename "\"inet.visualizer.canvas.scene.NetworkNodeCanvasVisualizer\""
par Net.visualizer.networkNodeVisualizer visualizationTargetModule "\"^.^\""
par Net.visualizer.networkNodeVisualizer visualizationSubjectModule "\"^.^\""
par Net.visualizer.networkNodeVisualizer tags "\"\""
par Net.visualizer.networkNodeVisualizer nodeFilter "\"*\""
attr mutable ""
par Net.visualizer.networkNodeVisualizer annotationSpacing 4
par Net.visualizer.networkNodeVisualizer placementPenalty 10
par Net.visualizer.networkNodeVisualizer zIndex 0
par Net.visualizer.networkConnectionVisualizer typename "\"inet.visualizer.canvas.scene.NetworkConnectionCanvasVisualizer\""
par Net.visualizer.networkConnectionVisualizer visualizationTargetModule "\"^.^\""
par Net.visualizer.networkConnectionVisualizer visualizationSubjectModule "\"^.^\""
par Net.visualizer.networkConnectionVisualizer tags "\"\""
par Net.visualizer.networkConnectionVisualizer displayNetworkConnections true
par Net.visualizer.networkConnectionVisualizer nodeFilter "\"\""
attr mutable ""
par Net.visualizer.networkConnectionVisualizer lineColor "\"black\""
par Net.visualizer.networkConnectionVisualizer lineStyle "\"solid\""
par Net.visualizer.networkConnectionVisualizer lineWidth 1
par Net.visualizer.networkConnectionVisualizer zIndex 0
par Net.visualizer.mobilityVisualizer typename "\"inet.visualizer.canvas.mobility.MobilityCanvasVisualizer\""
par Net.visualizer.mobilityVisualizer visualizationTargetModule "\"^.^\""
par Net.visualizer.mobilityVisualizer visualizationSubjectModule "\"^.^\""
par Net.visualizer.mobilityVisualizer tags "\"\""
par Net.visualizer.mobilityVisualizer networkNodeVisualizerModule "\"^.networkNodeVisualizer\""
par Net.visualizer.mobilityVisualizer displayMobility true
par Net.visualizer.mobilityVisualizer animationSpeed 0
par Net.visualizer.mobilityVisualizer moduleFilter "\"**.mobility\""
attr mutable ""
par Net.visualizer.mobilityVisualizer displayPositions false
par Net.visualizer.mobilityVisualizer positionCircleRadius 4
par Net.visualizer.mobilityVisualizer positionCircleLineWidth 1
par Net.visualizer.mobilityVisualizer positionCircleLineColor "\"dark\""
attr enum light,dark
par Net.visualizer.mobilityVisualizer positionCircleFillColor "\"dark\""
attr enum light,dark
par Net.visualizer.mobilityVisualizer displayOrientations false
par Net.visualizer.mobilityVisualizer orientationPieRadius 32
par Net.visualizer.mobilityVisualizer orientationPieSize 0.2
par Net.visualizer.mobilityVisualizer orientationPieOpacity 0.25
par Net.visualizer.mobilityVisualizer orientationLineColor "\"black\""
par Net.visualizer.mobilityVisualizer orientationLineStyle "\"solid\""
par Net.visualizer.mobilityVisualizer orientationLineWidth 1
par Net.visualizer.mobilityVisualizer orientationFillColor "\"blue\""
par Net.visualizer.mobilityVisualizer displayVelocities false
par Net.visualizer.mobilityVisualizer velocityArrowScale 1
par Net.visualizer.mobilityVisualizer velocityLineColor "\"black\""
par Net.visualizer.mobilityVisualizer velocityLineStyle "\"solid\""
par Net.visualizer.mobilityVisualizer velocityLineWidth 1
par Net.visualizer.mobilityVisualizer displayMovementTrails false
par Net.visualizer.mobilityVisualizer movementTrailLineColor "\"dark\""
attr enum light,dark
par Net.visualizer.mobilityVisualizer movementTrailLineStyle "\"solid\""
par Net.visualizer.mobilityVisualizer movementTrailLineWidth 1
par Net.visualizer.mobilityVisualizer trailLength 100
par Net.visualizer.mobilityVisualizer zIndex 0
par Net.visualizer.statisticVisualizer typename "\"inet.visualizer.canvas.common.StatisticCanvasVisualizer\""
par Net.visualizer.statisticVisualizer visualizationTargetModule "\"^.^\""
par Net.visualizer.statisticVisualizer visualizationSubjectModule "\"^.^\""
par Net.visualizer.statisticVisualizer tags "\"\""
par Net.visualizer.statisticVisualizer networkNodeVisualizerModule "\"^.networkNodeVisualizer\""
par Net.visualizer.statisticVisualizer displayStatistics true
par Net.visualizer.statisticVisualizer signalName "\"\""
par Net.visualizer.statisticVisualizer statisticName "\"\""
par Net.visualizer.statisticVisualizer statisticUnit "\"\""
par Net.visualizer.statisticVisualizer statisticExpression "\"\""
par Net.visualizer.statisticVisualizer sourceFilter "\"**\""
attr mutable ""
par Net.visualizer.statisticVisualizer format "\"%n: %v %u\""
attr mutable ""
par Net.visualizer.statisticVisualizer unit "\"\""
par Net.visualizer.statisticVisualizer font "\"<default>\""
par Net.visualizer.statisticVisualizer textColor "\"black\""
par Net.visualizer.statisticVisualizer backgroundColor "\"white\""
par Net.visualizer.statisticVisualizer opacity 1
par Net.visualizer.statisticVisualizer placementHint "\"top\""
par Net.visualizer.statisticVisualizer placementPriority 0
par Net.visualizer.statisticVisualizer zIndex 10
par Net.visualizer.statisticVisualizer propertyName "\"\""
par Net.visualizer.statisticVisualizer propertyIndex "\"\""
par Net.visualizer.infoVisualizer typename "\"inet.visualizer.canvas.common.InfoCanvasVisualizer\""
par Net.visualizer.infoVisualizer visualizationTargetModule "\"^.^\""
par Net.visualizer.infoVisualizer visualizationSubjectModule "\"^.^\""
par Net.visualizer.infoVisualizer tags "\"\""
par Net.visualizer.infoVisualizer networkNodeVisualizerModule "\"^.networkNodeVisualizer\""
par Net.visualizer.infoVisualizer displayInfos true
par Net.visualizer.infoVisualizer modules "\"\""
attr mutable ""
par Net.visualizer.infoVisualizer format "\"%t\""
attr mutable ""
par Net.visualizer.infoVisualizer font "\"<default>\""
par Net.visualizer.infoVisualizer textColor "\"black\""
par Net.visualizer.infoVisualizer backgroundColor "\"white\""
par Net.visualizer.infoVisualizer opacity 1
par Net.visualizer.infoVisualizer placementHint "\"top\""
par Net.visualizer.infoVisualizer placementPriority 0
par Net.visualizer.infoVisualizer zIndex 10
par Net.visualizer.energyStorageVisualizer typename "\"inet.visualizer.canvas.power.EnergyStorageCanvasVisualizer\""
par Net.visualizer.energyStorageVisualizer visualizationTargetModule "\"^.^\""
par Net.visualizer.energyStorageVisualizer visualizationSubjectModule "\"^.^\""
par Net.visualizer.energyStorageVisualizer tags "\"\""
par Net.visualizer.energyStorageVisualizer networkNodeVisualizerModule "\"^.networkNodeVisualizer\""
par Net.visualizer.energyStorageVisualizer displayEnergyStorages false
par Net.visualizer.energyStorageVisualizer energyStorageFilter "\"**\""
par Net.visualizer.energyStorageVisualizer color "\"green\""
par Net.visualizer.energyStorageVisualizer width 8
par Net.visualizer.energyStorageVisualizer height 24
par Net.visualizer.energyStorageVisualizer spacing 2
par Net.visualizer.energyStorageVisualizer placementHint "\"right\""
par Net.visualizer.energyStorageVisualizer placementPriority 0
par Net.visualizer.energyStorageVisualizer zIndex 10
par Net.visualizer.mediumVisualizer typename "\"inet.visualizer.canvas.physicallayer.MediumCanvasVisualizer\""
par Net.visualizer.mediumVisualizer visualizationTargetModule "\"^.^\""
par Net.visualizer.mediumVisualizer visualizationSubjectModule "\"^.^\""
par Net.visualizer.mediumVisualizer tags "\"\""
par Net.visualizer.mediumVisualizer mediumModule "\"radioMedium\""
par Net.visualizer.mediumVisualizer networkNodeVisualizerModule "\"^.networkNodeVisualizer\""
par Net.visualizer.mediumVisualizer nodeFilter "\"*\""
attr mutable ""
par Net.visualizer.mediumVisualizer interfaceFilter "\"*\""
attr mutable ""
par Net.visualizer.mediumVisualizer packetFilter "(omnetpp::cValueHolder)holder: \"*\""
attr mutable ""
par Net.visualizer.mediumVisualizer displaySignals false
par Net.visualizer.mediumVisualizer signalColor "\"dark\""
attr enum light,dark
par Net.visualizer.mediumVisualizer signalPropagationAnimationSpeed "nan "
attr mutable ""
par Net.visualizer.mediumVisualizer signalPropagationAnimationTime 1s
attr unit s
par Net.visualizer.mediumVisualizer signalPropagationAdditionalTime 0s
attr unit s
par Net.visualizer.mediumVisualizer signalTransmissionAnimationSpeed "nan "
attr mutable ""
par Net.visualizer.mediumVisualizer signalTransmissionAnimationTime 1s
attr unit s
par Net.visualizer.mediumVisualizer signalAnimationSpeedChangeTimeMode "\"realTime\""
attr enum realTime,animationTime,simulationTime
par Net.visualizer.mediumVisualizer signalAnimationSpeedChangeTime 1s
attr unit s
par Net.visualizer.mediumVisualizer displaySignalDepartures false
par Net.visualizer.mediumVisualizer signalDepartureImage "\"misc/signal_departure.png\""
par Net.visualizer.mediumVisualizer signalDeparturePlacementHint "\"topCenter\""
par Net.visualizer.mediumVisualizer signalDeparturePlacementPriority 1
par Net.visualizer.mediumVisualizer displaySignalArrivals false
par Net.visualizer.mediumVisualizer signalArrivalImage "\"misc/signal_arrival.png\""
par Net.visualizer.mediumVisualizer signalArrivalPlacementHint "\"topCenter\""
par Net.visualizer.mediumVisualizer signalArrivalPlacementPriority -1
par Net.visualizer.mediumVisualizer displayCommunicationRanges false
par Net.visualizer.mediumVisualizer communicationRangeLineColor "\"blue\""
par Net.visualizer.mediumVisualizer communicationRangeLineStyle "\"solid\""
par Net.visualizer.mediumVisualizer communicationRangeLineWidth 1
par Net.visualizer.mediumVisualizer displayInterferenceRanges false
par Net.visualizer.mediumVisualizer interferenceRangeLineColor "\"gray\""
par Net.visualizer.mediumVisualizer interferenceRangeLineStyle "\"solid\""
par Net.visualizer.mediumVisualizer interferenceRangeLineWidth 1
par Net.visualizer.mediumVisualizer autoPowerAxis true
par Net.visualizer.mediumVisualizer signalMinPower "inf dBmW"
attr unit dBmW
par Net.visualizer.mediumVisualizer signalMaxPower 0dBmW
attr unit dBmW
par Net.visualizer.mediumVisualizer signalMinPowerDensity "inf dBmWpMHz"
attr unit dBmWpMHz
par Net.visualizer.mediumVisualizer signalMaxPowerDensity "-inf dBmWpMHz"
attr unit dBmWpMHz
par Net.visualizer.mediumVisualizer autoTimeAxis true
par Net.visualizer.mediumVisualizer signalMinTime 0s
attr unit s
par Net.visualizer.mediumVisualizer signalMaxTime 0s
attr unit s
par Net.visualizer.mediumVisualizer autoFrequencyAxis true
par Net.visualizer.mediumVisualizer signalMinFrequency "inf Hz"
attr unit Hz
par Net.visualizer.mediumVisualizer signalMaxFrequency "-inf Hz"
attr unit Hz
par Net.visualizer.mediumVisualizer displayMainPowerDensityMap false
par Net.visualizer.mediumVisualizer mainPowerDensityMapPixmapDensity 1
par Net.visualizer.mediumVisualizer mainPowerDensityMapMinX 0
par Net.visualizer.mediumVisualizer mainPowerDensityMapMaxX "nan "
par Net.visualizer.mediumVisualizer mainPowerDensityMapMinY 0
par Net.visualizer.mediumVisualizer mainPowerDensityMapMaxY "nan "
par Net.visualizer.mediumVisualizer mainPowerDensityMapZ 0
par Net.visualizer.mediumVisualizer mainPowerDensityMapFigureXTickCount 3
par Net.visualizer.mediumVisualizer mainPowerDensityMapFigureYTickCount 3
par Net.visualizer.mediumVisualizer displayPowerDensityMaps false
par Net.visualizer.mediumVisualizer powerDensityMapMode "\"auto\""
attr enum total,signal,auto
par Net.visualizer.mediumVisualizer powerDensityMapPixelMode "\"mean\""
attr enum sample,partition,mean
par Net.visualizer.mediumVisualizer powerDensityMapApproximationSize 10
par Net.visualizer.mediumVisualizer powerDensityMapCenterFrequency "nan Hz"
attr mutable ""
attr unit Hz
par Net.visualizer.mediumVisualizer powerDensityMapBandwidth 0Hz
attr mutable ""
attr unit Hz
par Net.visualizer.mediumVisualizer powerDensityMapFigureWidth 200
par Net.visualizer.mediumVisualizer powerDensityMapFigureHeight 120
par Net.visualizer.mediumVisualizer powerDensityMapPixmapWidth 200
par Net.visualizer.mediumVisualizer powerDensityMapPixmapHeight 120
par Net.visualizer.mediumVisualizer powerDensityMapZ 0
par Net.visualizer.mediumVisualizer powerDensityMapFigureXTickCount 3
par Net.visualizer.mediumVisualizer powerDensityMapFigureYTickCount 3
par Net.visualizer.mediumVisualizer displaySpectrums false
par Net.visualizer.mediumVisualizer spectrumMode "\"auto\""
attr enum total,signal,auto
par Net.visualizer.mediumVisualizer spectrumFigureWidth 200
par Net.visualizer.mediumVisualizer spectrumFigureHeight 120
par Net.visualizer.mediumVisualizer spectrumFigureXTickCount 3
par Net.visualizer.mediumVisualizer spectrumFigureYTickCount 5
par Net.visualizer.mediumVisualizer spectrumFigureInterpolationSize 5
par Net.visualizer.mediumVisualizer spectrumPlacementHint "\"bottomCenter\""
par Net.visualizer.mediumVisualizer spectrumPlacementPriority -1
par Net.visualizer.mediumVisualizer displaySpectrograms false
par Net.visualizer.mediumVisualizer spectrogramMode "\"auto\""
attr enum total,signal,auto
par Net.visualizer.mediumVisualizer spectrogramPixelMode "\"mean\""
attr enum sample,partition,mean
par Net.visualizer.mediumVisualizer spectrogramFigureWidth 200
par Net.visualizer.mediumVisualizer spectrogramFigureHeight 120
par Net.visualizer.mediumVisualizer spectrogramPixmapWidth 200
par Net.visualizer.mediumVisualizer spectrogramPixmapHeight 120
par Net.visualizer.mediumVisualizer spectrogramFigureXTickCount 3
par Net.visualizer.mediumVisualizer spectrogramFigureYTickCount 5
par Net.visualizer.mediumVisualizer spectrogramPlacementHint "\"bottomCenter\""
par Net.visualizer.mediumVisualizer spectrogramPlacementPriority -1
par Net.visualizer.mediumVisualizer zIndex 0
par Net.visualizer.mediumVisualizer signalShape "\"ring\""
attr enum ring,sphere
par Net.visualizer.mediumVisualizer signalOpacity 0.5
par Net.visualizer.mediumVisualizer signalRingCount 20
par Net.visualizer.mediumVisualizer signalRingSize 50m
attr unit m
par Net.visualizer.mediumVisualizer signalFadingDistance 50m
attr unit m
par Net.visualizer.mediumVisualizer signalFadingFactor 1.2
par Net.visualizer.mediumVisualizer signalWaveCount 20
par Net.visualizer.mediumVisualizer signalWaveLength 50m
attr unit m
par Net.visualizer.mediumVisualizer signalWaveWidth 10m
attr unit m
par Net.visualizer.mediumVisualizer signalWaveFadingAnimationSpeedFactor 1
par Net.visualizer.mediumVisualizer displayCommunicationHeat false
par Net.visualizer.obstacleLossVisualizer typename "\"inet.visualizer.canvas.physicallayer.TracingObstacleLossCanvasVisualizer\""
par Net.visualizer.obstacleLossVisualizer visualizationTargetModule "\"^.^\""
par Net.visualizer.obstacleLossVisualizer visualizationSubjectModule "\"^.^\""
par Net.visualizer.obstacleLossVisualizer tags "\"\""
par Net.visualizer.obstacleLossVisualizer displayIntersections false
par Net.visualizer.obstacleLossVisualizer intersectionLineColor "\"red\""
par Net.visualizer.obstacleLossVisualizer intersectionLineStyle "\"solid\""
par Net.visualizer.obstacleLossVisualizer intersectionLineWidth 1
par Net.visualizer.obstacleLossVisualizer displayFaceNormalVectors false
par Net.visualizer.obstacleLossVisualizer faceNormalLineColor "\"grey\""
par Net.visualizer.obstacleLossVisualizer faceNormalLineStyle "\"solid\""
par Net.visualizer.obstacleLossVisualizer faceNormalLineWidth 1
par Net.visualizer.obstacleLossVisualizer fadeOutMode "\"realTime\""
attr enum realTime,animationTime,simulationTime
par Net.visualizer.obstacleLossVisualizer fadeOutTime 1s
attr unit s
par Net.visualizer.obstacleLossVisualizer fadeOutAnimationSpeed 0
par Net.visualizer.obstacleLossVisualizer zIndex 0
par Net.visualizer.packetDropVisualizer typename "\"inet.visualizer.canvas.common.PacketDropCanvasVisualizer\""
par Net.visualizer.packetDropVisualizer visualizationTargetModule "\"^.^\""
par Net.visualizer.packetDropVisualizer visualizationSubjectModule "\"^.^\""
par Net.visualizer.packetDropVisualizer tags "\"\""
par Net.visualizer.packetDropVisualizer displayPacketDrops false
par Net.visualizer.packetDropVisualizer nodeFilter "\"*\""
attr mutable ""
par Net.visualizer.packetDropVisualizer interfaceFilter "\"*\""
attr mutable ""
par Net.visualizer.packetDropVisualizer packetFilter "(omnetpp::cValueHolder)holder: \"*\""
attr mutable ""
par Net.visualizer.packetDropVisualizer detailsFilter "\"*\""
attr mutable ""
par Net.visualizer.packetDropVisualizer icon "\"msg/packet_s\""
par Net.visualizer.packetDropVisualizer iconTintAmount 1
par Net.visualizer.packetDropVisualizer iconTintColor "\"dark\""
par Net.visualizer.packetDropVisualizer labelFormat "\"%n\""
attr mutable ""
par Net.visualizer.packetDropVisualizer labelFont "\"<default>\""
par Net.visualizer.packetDropVisualizer labelColor "\"black\""
par Net.visualizer.packetDropVisualizer fadeOutMode "\"realTime\""
attr enum realTime,animationTime,simulationTime
par Net.visualizer.packetDropVisualizer fadeOutTime 1s
attr unit s
par Net.visualizer.packetDropVisualizer fadeOutAnimationSpeed 0
par Net.visualizer.packetDropVisualizer zIndex 10
par Net.visualizer.packetDropVisualizer dx 32
par Net.visualizer.packetDropVisualizer dy 64
par Net.visualizer.packetFlowVisualizer typename "\"inet.visualizer.canvas.flow.PacketFlowCanvasVisualizer\""
par Net.visualizer.packetFlowVisualizer visualizationTargetModule "\"^.^\""
par Net.visualizer.packetFlowVisualizer visualizationSubjectModule "\"^.^\""
par Net.visualizer.packetFlowVisualizer tags "\"\""
par Net.visualizer.packetFlowVisualizer displayRoutes false
par Net.visualizer.packetFlowVisualizer startPathSignal "\"packetFlowStarted\""
par Net.visualizer.packetFlowVisualizer extendPathSignal "\"packetReceivedFromLower\""
par Net.visualizer.packetFlowVisualizer endPathSignal "\"packetFlowEnded\""
par Net.visualizer.packetFlowVisualizer nodeFilter "\"*\""
attr mutable ""
par Net.visualizer.packetFlowVisualizer packetFilter "(omnetpp::cValueHolder)holder: \"*\""
attr mutable ""
par Net.visualizer.packetFlowVisualizer lineColor "\"dark\""
attr enum light,dark
par Net.visualizer.packetFlowVisualizer lineStyle "\"dashed\""
par Net.visualizer.packetFlowVisualizer lineWidth 3
par Net.visualizer.packetFlowVisualizer lineSmooth false
par Net.visualizer.packetFlowVisualizer lineShift 16
par Net.visualizer.packetFlowVisualizer lineShiftMode "\"normal\""
par Net.visualizer.packetFlowVisualizer lineContactSpacing 3
par Net.visualizer.packetFlowVisualizer lineContactMode "\"rectangular\""
attr enum circular,rectangular
par Net.visualizer.packetFlowVisualizer labelFormat "\"%L %p pk (%l)\""
par Net.visualizer.packetFlowVisualizer labelFont "\"<default>, 8px\""
par Net.visualizer.packetFlowVisualizer labelColor "\"\""
par Net.visualizer.packetFlowVisualizer fadeOutMode "\"realTime\""
attr enum realTime,animationTime,simulationTime
par Net.visualizer.packetFlowVisualizer fadeOutTime 0s
attr unit s
par Net.visualizer.packetFlowVisualizer fadeOutAnimationSpeed 0
par Net.visualizer.packetFlowVisualizer zIndex 4
par Net.visualizer.queueVisualizer typename "\"inet.visualizer.canvas.common.QueueCanvasVisualizer\""
par Net.visualizer.queueVisualizer visualizationTargetModule "\"^.^\""
par Net.visualizer.queueVisualizer visualizationSubjectModule "\"^.^\""
par Net.visualizer.queueVisualizer tags "\"\""
par Net.visualizer.queueVisualizer networkNodeVisualizerModule "\"^.networkNodeVisualizer\""
par Net.visualizer.queueVisualizer displayQueues false
par Net.visualizer.queueVisualizer queueFilter "\"**\""
par Net.visualizer.queueVisualizer color "\"blue\""
par Net.visualizer.queueVisualizer width 8
par Net.visualizer.queueVisualizer height 24
par Net.visualizer.queueVisualizer spacing 2
par Net.visualizer.queueVisualizer placementHint "\"right\""
par Net.visualizer.queueVisualizer placementPriority 0
par Net.visualizer.queueVisualizer zIndex 10
par Net.visualizer.gateScheduleVisualizer typename "\"inet.visualizer.canvas.common.GateScheduleCanvasVisualizer\""
par Net.visualizer.gateScheduleVisualizer visualizationTargetModule "\"^.^\""
par Net.visualizer.gateScheduleVisualizer visualizationSubjectModule "\"^.^\""
par Net.visualizer.gateScheduleVisualizer tags "\"\""
par Net.visualizer.gateScheduleVisualizer networkNodeVisualizerModule "\"^.networkNodeVisualizer\""
par Net.visualizer.gateScheduleVisualizer displayGateSchedules false
par Net.visualizer.gateScheduleVisualizer labelFormat "\"%i %D\""
par Net.visualizer.gateScheduleVisualizer gateFilter "\"**\""
par Net.visualizer.gateScheduleVisualizer width 100
par Net.visualizer.gateScheduleVisualizer height 8
par Net.visualizer.gateScheduleVisualizer spacing 2
par Net.visualizer.gateScheduleVisualizer placementHint "\"right\""
par Net.visualizer.gateScheduleVisualizer placementPriority 0
par Net.visualizer.gateScheduleVisualizer displayDuration 0s
attr mutable ""
attr unit s
par Net.visualizer.gateScheduleVisualizer currentTimePosition 50
par Net.visualizer.gateScheduleVisualizer zIndex 10
par Net.visualizer.radioVisualizer typename "\"inet.visualizer.canvas.physicallayer.RadioCanvasVisualizer\""
par Net.visualizer.radioVisualizer visualizationTargetModule "\"^.^\""
par Net.visualizer.radioVisualizer visualizationSubjectModule "\"^.^\""
par Net.visualizer.radioVisualizer tags "\"\""
par Net.visualizer.radioVisualizer networkNodeVisualizerModule "\"^.networkNodeVisualizer\""
par Net.visualizer.radioVisualizer displayRadios false
par Net.visualizer.radioVisualizer displayRadioMode true
par Net.visualizer.radioVisualizer displayReceptionState true
par Net.visualizer.radioVisualizer displayTransmissionState true
par Net.visualizer.radioVisualizer displayAntennaLobes false
par Net.visualizer.radioVisualizer radioFilter "\"**\""
attr mutable ""
par Net.visualizer.radioVisualizer radioModeImages "\"block/process_vs block/timer_vs block/wrx_vs block/wtx_vs block/wrxtx_vs block/cogwheel_vs\""
par Net.visualizer.radioVisualizer receptionStateImages "\"- - misc/receiving misc/receiving\""
par Net.visualizer.radioVisualizer transmissionStateImages "\"- - misc/transmitting\""
par Net.visualizer.radioVisualizer width 16
par Net.visualizer.radioVisualizer height 16
par Net.visualizer.radioVisualizer placementHint "\"bottomRight\""
par Net.visualizer.radioVisualizer placementPriority 0
par Net.visualizer.radioVisualizer antennaLobeNormalize false
par Net.visualizer.radioVisualizer antennaLobeRelativeLabels false
par Net.visualizer.radioVisualizer antennaLobePlaneGlobal true
par Net.visualizer.radioVisualizer antennaLobePlane "\"view\""
attr enum view,xy,xz,yz
par Net.visualizer.radioVisualizer antennaLobeMode "\"logarithmic\""
attr enum logarithmic,linear
par Net.visualizer.radioVisualizer antennaLobeLogarithmicBase 10
par Net.visualizer.radioVisualizer antennaLobeLogarithmicScale 100
par Net.visualizer.radioVisualizer antennaLobeRadius 100
par Net.visualizer.radioVisualizer antennaLobeStep 10deg
attr unit deg
par Net.visualizer.radioVisualizer antennaLobeOpacity 0.25
par Net.visualizer.radioVisualizer antennaLobeLineSmooth true
par Net.visualizer.radioVisualizer antennaLobeLineColor "\"black\""
par Net.visualizer.radioVisualizer antennaLobeLineStyle "\"solid\""
par Net.visualizer.radioVisualizer antennaLobeLineWidth 1
par Net.visualizer.radioVisualizer antennaLobeFillColor "\"white\""
par Net.visualizer.radioVisualizer zIndex 10
par Net.visualizer.physicalLinkVisualizer typename "\"inet.visualizer.canvas.physicallayer.PhysicalLinkCanvasVisualizer\""
par Net.visualizer.physicalLinkVisualizer visualizationTargetModule "\"^.^\""
par Net.visualizer.physicalLinkVisualizer visualizationSubjectModule "\"^.^\""
par Net.visualizer.physicalLinkVisualizer tags "\"\""
par Net.visualizer.physicalLinkVisualizer displayLinks false
par Net.visualizer.physicalLinkVisualizer activityLevel "\"service\""
attr enum service,peer,protocol
par Net.visualizer.physicalLinkVisualizer nodeFilter "\"*\""
attr mutable ""
par Net.visualizer.physicalLinkVisualizer interfaceFilter "\"*\""
attr mutable ""
par Net.visualizer.physicalLinkVisualizer packetFilter "(omnetpp::cValueHolder)holder: \"*\""
attr mutable ""
par Net.visualizer.physicalLinkVisualizer lineColor "\"olive\""
par Net.visualizer.physicalLinkVisualizer lineStyle "\"dotted\""
par Net.visualizer.physicalLinkVisualizer lineWidth 3
par Net.visualizer.physicalLinkVisualizer lineShift 16
par Net.visualizer.physicalLinkVisualizer lineShiftMode "\"normal\""
par Net.visualizer.physicalLinkVisualizer lineContactSpacing 3
par Net.visualizer.physicalLinkVisualizer lineContactMode "\"rectangular\""
attr enum circular,rectangular
par Net.visualizer.physicalLinkVisualizer labelFormat "\"%n\""
par Net.visualizer.physicalLinkVisualizer labelFont "\"<default>, 8px\""
par Net.visualizer.physicalLinkVisualizer labelColor "\"olive\""
par Net.visualizer.physicalLinkVisualizer fadeOutMode "\"realTime\""
attr enum realTime,animationTime,simulationTime
par Net.visualizer.physicalLinkVisualizer fadeOutTime 1s
attr unit s
par Net.visualizer.physicalLinkVisualizer fadeOutAnimationSpeed 0
par Net.visualizer.physicalLinkVisualizer holdAnimationTime 0s
attr unit s
par Net.visualizer.physicalLinkVisualizer zIndex 1
par Net.visualizer.interfaceTableVisualizer typename "\"inet.visualizer.canvas.linklayer.InterfaceTableCanvasVisualizer\""
par Net.visualizer.interfaceTableVisualizer visualizationTargetModule "\"^.^\""
par Net.visualizer.interfaceTableVisualizer visualizationSubjectModule "\"^.^\""
par Net.visualizer.interfaceTableVisualizer tags "\"\""
par Net.visualizer.interfaceTableVisualizer networkNodeVisualizerModule "\"^.networkNodeVisualizer\""
par Net.visualizer.interfaceTableVisualizer displayInterfaceTables false
par Net.visualizer.interfaceTableVisualizer displayWiredInterfacesAtConnections true
par Net.visualizer.interfaceTableVisualizer displayBackground false
par Net.visualizer.interfaceTableVisualizer nodeFilter "\"*\""
attr mutable ""
par Net.visualizer.interfaceTableVisualizer interfaceFilter "\"not(lo*)\""
attr mutable ""
par Net.visualizer.interfaceTableVisualizer format "\"%N %\\\\%a%/%l\""
attr mutable ""
par Net.visualizer.interfaceTableVisualizer placementHint "\"top\""
par Net.visualizer.interfaceTableVisualizer placementPriority 0
par Net.visualizer.interfaceTableVisualizer font "\"<default>\""
par Net.visualizer.interfaceTableVisualizer textColor "\"#005030\""
par Net.visualizer.interfaceTableVisualizer backgroundColor "\"white\""
par Net.visualizer.interfaceTableVisualizer opacity 1
par Net.visualizer.interfaceTableVisualizer zIndex 10
par Net.visualizer.dataLinkVisualizer typename "\"inet.visualizer.canvas.linklayer.DataLinkCanvasVisualizer\""
par Net.visualizer.dataLinkVisualizer visualizationTargetModule "\"^.^\""
par Net.visualizer.dataLinkVisualizer visualizationSubjectModule "\"^.^\""
par Net.visualizer.dataLinkVisualizer tags "\"\""
par Net.visualizer.dataLinkVisualizer displayLinks false
par Net.visualizer.dataLinkVisualizer activityLevel "\"service\""
attr enum service,peer,protocol
par Net.visualizer.dataLinkVisualizer nodeFilter "\"*\""
attr mutable ""
par Net.visualizer.dataLinkVisualizer interfaceFilter "\"*\""
attr mutable ""
par Net.visualizer.dataLinkVisualizer packetFilter "(omnetpp::cValueHolder)holder: \"*\""
attr mutable ""
par Net.visualizer.dataLinkVisualizer lineColor "\"darkcyan\""
par Net.visualizer.dataLinkVisualizer lineStyle "\"solid\""
par Net.visualizer.dataLinkVisualizer lineWidth 3
par Net.visualizer.dataLinkVisualizer lineShift 16
par Net.visualizer.dataLinkVisualizer lineShiftMode "\"normal\""
par Net.visualizer.dataLinkVisualizer lineContactSpacing 3
par Net.visualizer.dataLinkVisualizer lineContactMode "\"rectangular\""
attr enum circular,rectangular
par Net.visualizer.dataLinkVisualizer labelFormat "\"%n\""
par Net.visualizer.dataLinkVisualizer labelFont "\"<default>, 8px\""
par Net.visualizer.dataLinkVisualizer labelColor "\"darkcyan\""
par Net.visualizer.dataLinkVisualizer fadeOutMode "\"realTime\""
attr enum realTime,animationTime,simulationTime
par Net.visualizer.dataLinkVisualizer fadeOutTime 1s
attr unit s
par Net.visualizer.dataLinkVisualizer fadeOutAnimationSpeed 0
par Net.visualizer.dataLinkVisualizer holdAnimationTime 0s
attr unit s
par Net.visualizer.dataLinkVisualizer zIndex 2
par Net.visualizer.linkBreakVisualizer typename "\"inet.visualizer.canvas.linklayer.LinkBreakCanvasVisualizer\""
par Net.visualizer.linkBreakVisualizer visualizationTargetModule "\"^.^\""
par Net.visualizer.linkBreakVisualizer visualizationSubjectModule "\"^.^\""
par Net.visualizer.linkBreakVisualizer tags "\"\""
par Net.visualizer.linkBreakVisualizer displayLinkBreaks false
par Net.visualizer.linkBreakVisualizer nodeFilter "\"*\""
attr mutable ""
par Net.visualizer.linkBreakVisualizer interfaceFilter "\"*\""
attr mutable ""
par Net.visualizer.linkBreakVisualizer packetFilter "(omnetpp::cValueHolder)holder: \"*\""
attr mutable ""
par Net.visualizer.linkBreakVisualizer icon "\"status/stop\""
par Net.visualizer.linkBreakVisualizer iconTintAmount 0
par Net.visualizer.linkBreakVisualizer iconTintColor "\"\""
par Net.visualizer.linkBreakVisualizer fadeOutMode "\"realTime\""
attr enum realTime,animationTime,simulationTime
par Net.visualizer.linkBreakVisualizer fadeOutTime 1s
attr unit s
par Net.visualizer.linkBreakVisualizer fadeOutAnimationSpeed 0
par Net.visualizer.linkBreakVisualizer zIndex 2
par Net.visualizer.ieee80211Visualizer typename "\"inet.visualizer.canvas.linklayer.Ieee80211CanvasVisualizer\""
par Net.visualizer.ieee80211Visualizer visualizationTargetModule "\"^.^\""
par Net.visualizer.ieee80211Visualizer visualizationSubjectModule "\"^.^\""
par Net.visualizer.ieee80211Visualizer tags "\"\""
par Net.visualizer.ieee80211Visualizer networkNodeVisualizerModule "\"^.networkNodeVisualizer\""
par Net.visualizer.ieee80211Visualizer displayAssociations false
par Net.visualizer.ieee80211Visualizer nodeFilter "\"*\""
attr mutable ""
par Net.visualizer.ieee80211Visualizer interfaceFilter "\"*\""
attr mutable ""
par Net.visualizer.ieee80211Visualizer minPower -85dBm
attr unit dBm
par Net.visualizer.ieee80211Visualizer maxPower -50dBm
attr unit dBm
par Net.visualizer.ieee80211Visualizer icons "\"misc/signal_power_0 misc/signal_power_1 misc/signal_power_2 misc/signal_power_3\""
par Net.visualizer.ieee80211Visualizer iconColor "\"dark\""
attr enum light,dark
par Net.visualizer.ieee80211Visualizer labelFont "\"<default>\""
par Net.visualizer.ieee80211Visualizer labelColor "\"black\""
par Net.visualizer.ieee80211Visualizer placementHint "\"top\""
par Net.visualizer.ieee80211Visualizer placementPriority 0
par Net.visualizer.ieee80211Visualizer zIndex 2
par Net.visualizer.networkRouteVisualizer typename "\"inet.visualizer.canvas.networklayer.NetworkRouteCanvasVisualizer\""
par Net.visualizer.networkRouteVisualizer visualizationTargetModule "\"^.^\""
par Net.visualizer.networkRouteVisualizer visualizationSubjectModule "\"^.^\""
par Net.visualizer.networkRouteVisualizer tags "\"\""
par Net.visualizer.networkRouteVisualizer displayRoutes false
par Net.visualizer.networkRouteVisualizer startPathSignal "\"packetReceivedFromUpper\""
par Net.visualizer.networkRouteVisualizer extendPathSignal "\"packetReceivedFromLower\""
par Net.visualizer.networkRouteVisualizer endPathSignal "\"packetSentToUpper\""
par Net.visualizer.networkRouteVisualizer nodeFilter "\"*\""
attr mutable ""
par Net.visualizer.networkRouteVisualizer packetFilter "(omnetpp::cValueHolder)holder: \"*\""
attr mutable ""
par Net.visualizer.networkRouteVisualizer lineColor "\"dark\""
attr enum light,dark
par Net.visualizer.networkRouteVisualizer lineStyle "\"solid\""
par Net.visualizer.networkRouteVisualizer lineWidth 3
par Net.visualizer.networkRouteVisualizer lineSmooth false
par Net.visualizer.networkRouteVisualizer lineShift 16
par Net.visualizer.networkRouteVisualizer lineShiftMode "\"normal\""
par Net.visualizer.networkRouteVisualizer lineContactSpacing 3
par Net.visualizer.networkRouteVisualizer lineContactMode "\"rectangular\""
attr enum circular,rectangular
par Net.visualizer.networkRouteVisualizer labelFormat "\"%n\""
par Net.visualizer.networkRouteVisualizer labelFont "\"<default>, 8px\""
par Net.visualizer.networkRouteVisualizer labelColor "\"\""
par Net.visualizer.networkRouteVisualizer fadeOutMode "\"realTime\""
attr enum realTime,animationTime,simulationTime
par Net.visualizer.networkRouteVisualizer fadeOutTime 1s
attr unit s
par Net.visualizer.networkRouteVisualizer fadeOutAnimationSpeed 0
par Net.visualizer.networkRouteVisualizer zIndex 3
par Net.visualizer.routingTableVisualizer typename "\"inet.visualizer.canvas.networklayer.RoutingTableCanvasVisualizer\""
par Net.visualizer.routingTableVisualizer visualizationTargetModule "\"^.^\""
par Net.visualizer.routingTableVisualizer visualizationSubjectModule "\"^.^\""
par Net.visualizer.routingTableVisualizer tags "\"\""
par Net.visualizer.routingTableVisualizer displayRoutingTables false
par Net.visualizer.routingTableVisualizer displayRoutesIndividually true
par Net.visualizer.routingTableVisualizer displayLabels true
par Net.visualizer.routingTableVisualizer destinationFilter "\"*\""
attr mutable ""
par Net.visualizer.routingTableVisualizer nodeFilter "\"*\""
attr mutable ""
par Net.visualizer.routingTableVisualizer lineColor "\"black\""
par Net.visualizer.routingTableVisualizer lineStyle "\"solid\""
par Net.visualizer.routingTableVisualizer lineWidth 2
par Net.visualizer.routingTableVisualizer lineShift 16
par Net.visualizer.routingTableVisualizer lineShiftMode "\"normal\""
par Net.visualizer.routingTableVisualizer lineContactSpacing 3
par Net.visualizer.routingTableVisualizer lineContactMode "\"rectangular\""
attr enum circular,rectangular
par Net.visualizer.routingTableVisualizer labelFormat "\"%d/%m -> %g (%n)\""
attr mutable ""
par Net.visualizer.routingTableVisualizer labelFont "\"<default>, 8px\""
par Net.visualizer.routingTableVisualizer labelColor "\"black\""
par Net.visualizer.routingTableVisualizer zIndex 0
par Net.visualizer.transportRouteVisualizer typename "\"inet.visualizer.canvas.transportlayer.TransportRouteCanvasVisualizer\""
par Net.visualizer.transportRouteVisualizer visualizationTargetModule "\"^.^\""
par Net.visualizer.transportRouteVisualizer visualizationSubjectModule "\"^.^\""
par Net.visualizer.transportRouteVisualizer tags "\"\""
par Net.visualizer.transportRouteVisualizer displayRoutes false
par Net.visualizer.transportRouteVisualizer startPathSignal "\"packetReceivedFromUpper\""
par Net.visualizer.transportRouteVisualizer extendPathSignal "\"packetReceivedFromLower\""
par Net.visualizer.transportRouteVisualizer endPathSignal "\"packetSentToUpper\""
par Net.visualizer.transportRouteVisualizer nodeFilter "\"*\""
attr mutable ""
par Net.visualizer.transportRouteVisualizer packetFilter "(omnetpp::cValueHolder)holder: \"*\""
attr mutable ""
par Net.visualizer.transportRouteVisualizer lineColor "\"dark\""
attr enum light,dark
par Net.visualizer.transportRouteVisualizer lineStyle "\"solid\""
par Net.visualizer.transportRouteVisualizer lineWidth 3
par Net.visualizer.transportRouteVisualizer lineSmooth false
par Net.visualizer.transportRouteVisualizer lineShift 16
par Net.visualizer.transportRouteVisualizer lineShiftMode "\"normal\""
par Net.visualizer.transportRouteVisualizer lineContactSpacing 3
par Net.visualizer.transportRouteVisualizer lineContactMode "\"rectangular\""
attr enum circular,rectangular
par Net.visualizer.transportRouteVisualizer labelFormat "\"%n\""
par Net.visualizer.transportRouteVisualizer labelFont "\"<default>, 8px\""
par Net.visualizer.transportRouteVisualizer labelColor "\"\""
par Net.visualizer.transportRouteVisualizer fadeOutMode "\"realTime\""
attr enum realTime,animationTime,simulationTime
par Net.visualizer.transportRouteVisualizer fadeOutTime 1s
attr unit s
par Net.visualizer.transportRouteVisualizer fadeOutAnimationSpeed 0
par Net.visualizer.transportRouteVisualizer zIndex 4
par Net.visualizer.transportConnectionVisualizer typename "\"inet.visualizer.canvas.transportlayer.TransportConnectionCanvasVisualizer\""
par Net.visualizer.transportConnectionVisualizer visualizationTargetModule "\"^.^\""
par Net.visualizer.transportConnectionVisualizer visualizationSubjectModule "\"^.^\""
par Net.visualizer.transportConnectionVisualizer tags "\"\""
par Net.visualizer.transportConnectionVisualizer networkNodeVisualizerModule "\"^.networkNodeVisualizer\""
par Net.visualizer.transportConnectionVisualizer displayTransportConnections false
par Net.visualizer.transportConnectionVisualizer sourceNodeFilter "\"*\""
attr mutable ""
par Net.visualizer.transportConnectionVisualizer sourcePortFilter "\"*\""
attr mutable ""
par Net.visualizer.transportConnectionVisualizer destinationNodeFilter "\"*\""
attr mutable ""
par Net.visualizer.transportConnectionVisualizer destinationPortFilter "\"*\""
attr mutable ""
par Net.visualizer.transportConnectionVisualizer icon "\"misc/marker_s\""
par Net.visualizer.transportConnectionVisualizer iconColor "\"dark\""
attr enum light,dark
par Net.visualizer.transportConnectionVisualizer labelFont "\"<default>\""
par Net.visualizer.transportConnectionVisualizer labelColor "\"black\""
par Net.visualizer.transportConnectionVisualizer placementHint "\"top\""
par Net.visualizer.transportConnectionVisualizer placementPriority 0
par Net.visualizer.transportConnectionVisualizer zIndex 4
par Net.visualizer.failureProtectionConfigurationVisualizer typename "\"inet.visualizer.canvas.configurator.FailureProtectionConfigurationCanvasVisualizer\""
par Net.visualizer.failureProtectionConfigurationVisualizer visualizationTargetModule "\"^.^\""
par Net.visualizer.failureProtectionConfigurationVisualizer visualizationSubjectModule "\"^.^\""
par Net.visualizer.failureProtectionConfigurationVisualizer tags "\"\""
par Net.visualizer.failureProtectionConfigurationVisualizer displayTrees false
par Net.visualizer.failureProtectionConfigurationVisualizer lineColor "\"dark\""
attr enum light,dark
par Net.visualizer.failureProtectionConfigurationVisualizer lineStyle "\"solid\""
par Net.visualizer.failureProtectionConfigurationVisualizer lineWidth 3
par Net.visualizer.failureProtectionConfigurationVisualizer lineSmooth false
par Net.visualizer.failureProtectionConfigurationVisualizer lineShift 16
par Net.visualizer.failureProtectionConfigurationVisualizer lineShiftMode "\"normal\""
par Net.visualizer.failureProtectionConfigurationVisualizer lineContactSpacing 3
par Net.visualizer.failureProtectionConfigurationVisualizer lineContactMode "\"rectangular\""
attr enum circular,rectangular
par Net.visualizer.failureProtectionConfigurationVisualizer failureProtectionConfiguratorModule "\"failureProtectionConfigurator\""
par Net.visualizer.failureProtectionConfigurationVisualizer streamFilter "\"*\""
par Net.visualizer.failureProtectionConfigurationVisualizer zIndex 3
par Net.visualizer.streamRedundancyConfigurationVisualizer typename "\"inet.visualizer.canvas.configurator.StreamRedundancyConfigurationCanvasVisualizer\""
par Net.visualizer.streamRedundancyConfigurationVisualizer visualizationTargetModule "\"^.^\""
par Net.visualizer.streamRedundancyConfigurationVisualizer visualizationSubjectModule "\"^.^\""
par Net.visualizer.streamRedundancyConfigurationVisualizer tags "\"\""
par Net.visualizer.streamRedundancyConfigurationVisualizer displayTrees false
par Net.visualizer.streamRedundancyConfigurationVisualizer lineColor "\"dark\""
attr enum light,dark
par Net.visualizer.streamRedundancyConfigurationVisualizer lineStyle "\"solid\""
par Net.visualizer.streamRedundancyConfigurationVisualizer lineWidth 3
par Net.visualizer.streamRedundancyConfigurationVisualizer lineSmooth false
par Net.visualizer.streamRedundancyConfigurationVisualizer lineShift 16
par Net.visualizer.streamRedundancyConfigurationVisualizer lineShiftMode "\"normal\""
par Net.visualizer.streamRedundancyConfigurationVisualizer lineContactSpacing 3
par Net.visualizer.streamRedundancyConfigurationVisualizer lineContactMode "\"rectangular\""
attr enum circular,rectangular
par Net.visualizer.streamRedundancyConfigurationVisualizer streamRedundancyConfiguratorModule "\"streamRedundancyConfigurator\""
par Net.visualizer.streamRedundancyConfigurationVisualizer streamFilter "\"*\""
par Net.visualizer.streamRedundancyConfigurationVisualizer zIndex 3
par Net.visualizer typename "\"inet.visualizer.canvas.integrated.IntegratedCanvasVisualizer\""
par Net.configurator typename "\"inet.networklayer.configurator.ipv4.Ipv4NetworkConfigurator\""
par Net.configurator minLinkWeight 0.001
par Net.configurator configureIsolatedNetworksSeparatly false
par Net.configurator config "<config>...</config> at content:1"
par Net.configurator assignAddresses true
par Net.configurator assignUniqueAddresses true
par Net.configurator assignDisjunctSubnetAddresses true
par Net.configurator addStaticRoutes true
par Net.configurator addDefaultRoutes true
par Net.configurator addSubnetRoutes true
par Net.configurator addDirectRoutes true
par Net.configurator optimizeRoutes true
par Net.configurator dumpTopology false
par Net.configurator dumpLinks false
par Net.configurator dumpAddresses false
par Net.configurator dumpRoutes false
par Net.configurator dumpConfig "\"\""
par Net.radioMedium.propagation typename "\"inet.physicallayer.wireless.common.propagation.ConstantSpeedPropagation\""
par Net.radioMedium.propagation propagationSpeed 2.99792e+08mps
attr unit mps
par Net.radioMedium.propagation ignoreMovementDuringTransmission true
par Net.radioMedium.propagation ignoreMovementDuringPropagation true
par Net.radioMedium.propagation ignoreMovementDuringReception true
scalar Net.radioMedium.propagation "Arrival computation count" 3
par Net.radioMedium.analogModel typename "\"inet.physicallayer.wireless.unitdisk.UnitDiskAnalogModel\""
par Net.radioMedium.pathLoss typename "\"inet.physicallayer.wireless.common.pathloss.FreeSpacePathLoss\""
par Net.radioMedium.pathLoss alpha 2
par Net.radioMedium.pathLoss systemLoss 0dB
attr unit dB
par Net.radioMedium.mediumLimitCache typename "\"inet.physicallayer.wireless.common.medium.MediumLimitCache\""
par Net.radioMedium.mediumLimitCache centerFrequency "nan Hz"
attr unit Hz
par Net.radioMedium.mediumLimitCache maxSpeed "nan mps"
attr unit mps
par Net.radioMedium.mediumLimitCache maxTransmissionPower "nan W"
attr unit W
par Net.radioMedium.mediumLimitCache minInterferencePower "nan dBm"
attr unit dBm
par Net.radioMedium.mediumLimitCache minReceptionPower "nan dBm"
attr unit dBm
par Net.radioMedium.mediumLimitCache maxAntennaGain 0dB
attr unit dB
par Net.radioMedium.mediumLimitCache minInterferenceTime 1e-12s
attr unit s
par Net.radioMedium.mediumLimitCache maxTransmissionDuration 0.01s
attr unit s
par Net.radioMedium.mediumLimitCache maxCommunicationRange "nan m"
attr unit m
par Net.radioMedium.mediumLimitCache maxInterferenceRange "nan m"
attr unit m
par Net.radioMedium.communicationCache typename "\"inet.physicallayer.wireless.common.communicationcache.VectorCommunicationCache\""
par Net.radioMedium typename "\"inet.physicallayer.wireless.unitdisk.UnitDiskRadioMedium\""
par Net.radioMedium physicalEnvironmentModule "\"physicalEnvironment\""
par Net.radioMedium signalAnalogRepresentation "\"unitDisk\""
attr enum unitDisk,scalar,dimensional
par Net.radioMedium rangeFilter "\"\""
par Net.radioMedium radioModeFilter false
par Net.radioMedium listeningFilter false
par Net.radioMedium macAddressFilter false
par Net.radioMedium recordTransmissionLog false
par Net.radioMedium recordReceptionLog false
scalar Net.radioMedium "transmission count" 3
scalar Net.radioMedium "signal send count" 3
scalar Net.radioMedium "reception computation count" 3
scalar Net.radioMedium "interference computation count" 16
scalar Net.radioMedium "reception decision computation count" 2
scalar Net.radioMedium "listening decision computation count" 11
scalar Net.radioMedium "reception cache hit" 82.352941176471
attr unit %
scalar Net.radioMedium "interference cache hit" 66.666666666667
attr unit %
scalar Net.radioMedium "noise cache hit" 0
attr unit %
scalar Net.radioMedium "snir cache hit" 50
attr unit %
scalar Net.radioMedium "reception decision cache hit" 50
attr unit %
scalar Net.radioMedium "reception result cache hit" 0
attr unit %
par Net.host[0].radioIn[0].channel typename "\"ned.IdealChannel\""
par Net.host[0].mobility typename "\"inet.mobility.single.MassMobility\""
par Net.host[0].mobility subjectModule "\"^\""
par Net.host[0].mobility coordinateSystemModule "\"\""
par Net.host[0].mobility displayStringTextFormat "\"p: %p\\nv: %v\""
attr mutable ""
par Net.host[0].mobility updateDisplayString true
par Net.host[0].mobility constraintAreaMinX 0m
attr unit m
par Net.host[0].mobility constraintAreaMinY 0m
attr unit m
par Net.host[0].mobility constraintAreaMinZ 0m
attr unit m
par Net.host[0].mobility constraintAreaMaxX 600m
attr unit m
par Net.host[0].mobility constraintAreaMaxY 400m
attr unit m
par Net.host[0].mobility constraintAreaMaxZ 0m
attr unit m
par Net.host[0].mobility updateInterval 0.1s
attr unit s
par Net.host[0].mobility faceForward true
par Net.host[0].mobility initialX 329.288m
attr unit m
par Net.host[0].mobility initialY 237.138m
attr unit m
par Net.host[0].mobility initialZ 0m
attr unit m
par Net.host[0].mobility initialMovementHeading 303.936deg
attr unit deg
par Net.host[0].mobility initialMovementElevation 0deg
attr unit deg
par Net.host[0].mobility initFromDisplayString false
par Net.host[0].mobility changeInterval "truncnormal(2s, 0.5s)"
attr unit s
par Net.host[0].mobility angleDelta "normal(0deg, 30deg)"
attr unit deg
par Net.host[0].mobility rotationAxisAngle 0deg
attr unit deg
par Net.host[0].mobility speed "truncnormal(20mps, 8mps)"
attr mutable ""
attr unit mps
par Net.host[0].interfaceTable typename "\"inet.networklayer.common.InterfaceTable\""
par Net.host[0].interfaceTable displayAddresses false
par Net.host[0].cb typename "\"inet.common.MessageDispatcher\""
par Net.host[0].cb displayStringTextFormat "\"processed %p pk (%l)\""
par Net.host[0].cb forwardServiceRegistration true
par Net.host[0].cb forwardProtocolRegistration true
par Net.host[0].bl typename "\"inet.common.MessageDispatcher\""
par Net.host[0].bl displayStringTextFormat "\"processed %p pk (%l)\""
par Net.host[0].bl forwardServiceRegistration true
par Net.host[0].bl forwardProtocolRegistration true
par Net.host[0].li typename "\"inet.common.MessageDispatcher\""
par Net.host[0].li displayStringTextFormat "\"processed %p pk (%l)\""
par Net.host[0].li forwardServiceRegistration true
par Net.host[0].li forwardProtocolRegistration true
par Net.host[0].lo[0].upperLayerIn.channel typename "\"ned.IdealChannel\""
par Net.host[0].lo[0].lo.upperLayerOut.channel typename "\"ned.IdealChannel\""
par Net.host[0].lo[0].lo typename "\"inet.linklayer.loopback.Loopback\""
par Net.host[0].lo[0].lo interfaceTableModule "\"Net.host[0].interfaceTable\""
par Net.host[0].lo[0].lo mtu 4470B
attr unit B
scalar Net.host[0].lo[0].lo rcvdPkFromHl:count 0
attr interpolationmode none
attr recordingmode count
attr source packetReceivedFromUpper
attr title "packets received from higher layer, count"
scalar Net.host[0].lo[0].lo rcvdPkFromHl:sum(packetBytes) 0
attr interpolationmode none
attr recordingmode sum(packetBytes)
attr source packetReceivedFromUpper
attr title "packets received from higher layer, sum(packetBytes)"
scalar Net.host[0].lo[0].lo passedUpPk:count 0
attr interpolationmode none
attr recordingmode count
attr source packetSentToUpper
attr title "packets passed to higher layer, count"
scalar Net.host[0].lo[0].lo passedUpPk:sum(packetBytes) 0
attr interpolationmode none
attr recordingmode sum(packetBytes)
attr source packetSentToUpper
attr title "packets passed to higher layer, sum(packetBytes)"
par Net.host[0].lo[0] typename "\"inet.linklayer.loopback.LoopbackInterface\""
par Net.host[0].lo[0] displayStringTextFormat "\"%a (%i)\\n%m\""
par Net.host[0].lo[0] recordPcap false
par Net.host[0].lo[0] numPcapRecorders 0
par Net.host[0].lo[0] interfaceTableModule "\"Net.host[0].interfaceTable\""
scalar Net.host[0].lo[0] packetDropInterfaceDown:count 0
attr interpolationmode none
attr recordingmode count
attr source packetDropReasonIsInterfaceDown(packetDropped)
attr title "packet drops: interface down, count"
scalar Net.host[0].lo[0] packetDropInterfaceDown:sum(packetBytes) 0
attr interpolationmode none
attr recordingmode sum(packetBytes)
attr source packetDropReasonIsInterfaceDown(packetDropped)
attr title "packet drops: interface down, sum(packetBytes)"
scalar Net.host[0].lo[0] packetDropNoCarrier:count 0
attr interpolationmode none
attr recordingmode count
attr source packetDropReasonIsNoCarrier(packetDropped)
attr title "packet drops: no carrier, count"
scalar Net.host[0].lo[0] packetDropNoCarrier:sum(packetBytes) 0
attr interpolationmode none
attr recordingmode sum(packetBytes)
attr source packetDropReasonIsNoCarrier(packetDropped)
attr title "packet drops: no carrier, sum(packetBytes)"
par Net.host[0].wlan[0].upperLayerIn.channel typename "\"ned.IdealChannel\""
par Net.host[0].wlan[0].radioIn.channel typename "\"ned.IdealChannel\""
par Net.host[0].wlan[0].mac.upperLayerOut.channel typename "\"ned.IdealChannel\""
par Net.host[0].wlan[0].queue typename "\"inet.queueing.queue.DropTailQueue\""
par Net.host[0].wlan[0].queue displayStringTextFormat "\"contains %p pk (%l) pushed %u\\npulled %o removed %r dropped %d\""
par Net.host[0].wlan[0].queue packetCapacity 100
par Net.host[0].wlan[0].queue dataCapacity -1b
attr unit b
par Net.host[0].wlan[0].queue dropperClass "\"inet::queueing::PacketAtCollectionEndDropper\""
par Net.host[0].wlan[0].queue comparatorClass "\"\""
par Net.host[0].wlan[0].queue bufferModule "\"\""
scalar Net.host[0].wlan[0].queue queueLength:last 0
attr autoWarmupFilter false
attr interpolationmode sample-hold
attr recordingmode last
attr source "warmup(atomic(constant0(packetPushEnded) + count(packetPushStarted) - count(packetPulled) - count(packetRemoved) - count(packetDropped)))"
attr title "queue length, last"
attr unit pk
scalar Net.host[0].wlan[0].queue queueLength:max 0
attr autoWarmupFilter false
attr interpolationmode sample-hold
attr recordingmode max
attr source "warmup(atomic(constant0(packetPushEnded) + count(packetPushStarted) - count(packetPulled) - count(packetRemoved) - count(packetDropped)))"
attr title "queue length, max"
attr unit pk
scalar Net.host[0].wlan[0].queue queueLength:timeavg 0
attr autoWarmupFilter false
attr interpolationmode sample-hold
attr recordingmode timeavg
attr source "warmup(atomic(constant0(packetPushEnded) + count(packetPushStarted) - count(packetPulled) - count(packetRemoved) - count(packetDropped)))"
attr title "queue length, timeavg"
attr unit pk
scalar Net.host[0].wlan[0].queue queueBitLength:last 0
attr autoWarmupFilter false
attr interpolationmode sample-hold
attr recordingmode last
attr source "warmup(atomic(constant0(packetPushEnded) + sum(packetLength(packetPushStarted)) - sum(packetLength(packetPulled)) - sum(packetLength(packetRemoved)) - sum(packetLength(packetDropped))))"
attr title "queue bit length, last"
attr unit b
scalar Net.host[0].wlan[0].queue queueBitLength:max 0
attr autoWarmupFilter false
attr interpolationmode sample-hold
attr recordingmode max
attr source "warmup(atomic(constant0(packetPushEnded) + sum(packetLength(packetPushStarted)) - sum(packetLength(packetPulled)) - sum(packetLength(packetRemoved)) - sum(packetLength(packetDropped))))"
attr title "queue bit length, max"
attr unit b
scalar Net.host[0].wlan[0].queue queueBitLength:timeavg 0
attr autoWarmupFilter false
attr interpolationmode sample-hold
attr recordingmode timeavg
attr source "warmup(atomic(constant0(packetPushEnded) + sum(packetLength(packetPushStarted)) - sum(packetLength(packetPulled)) - sum(packetLength(packetRemoved)) - sum(packetLength(packetDropped))))"
attr title "queue bit length, timeavg"
attr unit b
statistic Net.host[0].wlan[0].queue queueingTime:histogram
field count 1
field mean 0
field stddev nan
field min 0
field max 0
field sum 0
field sqrsum 0
attr interpolationmode none
attr recordingmode histogram
attr source queueingTime(packetPulled)
attr title "queueing times"
attr unit s
bin	-inf	0
bin	-0.5	0
bin	-0.48	0
bin	-0.46	0
bin	-0.44	0
bin	-0.42	0
bin	-0.4	0
bin	-0.38	0
bin	-0.36	0
bin	-0.34	0
bin	-0.32	0
bin	-0.3	0
bin	-0.28	0
bin	-0.26	0
bin	-0.24	0
bin	-0.22	0
bin	-0.2	0
bin	-0.18	0
bin	-0.16	0
bin	-0.14	0
bin	-0.12	0
bin	-0.1	0
bin	-0.08	0
bin	-0.06	0
bin	-0.04	0
bin	-0.02	0
bin	0	1
bin	0.02	0
bin	0.04	0
bin	0.06	0
bin	0.08	0
bin	0.1	0
bin	0.12	0
bin	0.14	0
bin	0.16	0
bin	0.18	0
bin	0.2	0
bin	0.22	0
bin	0.24	0
bin	0.26	0
bin	0.28	0
bin	0.3	0
bin	0.32	0
bin	0.34	0
bin	0.36	0
bin	0.38	0
bin	0.4	0
bin	0.42	0
bin	0.44	0
bin	0.46	0
bin	0.48	0
bin	0.5	0
scalar Net.host[0].wlan[0].queue outgoingPackets:count 1
attr recordingmode count
attr source packetPulled
attr title "outgoing packets, count"
attr unit pk
scalar Net.host[0].wlan[0].queue outgoingPacketLengths:sum 224
attr interpolationmode none
attr recordingmode sum
attr source packetLength(packetPulled)
attr title "outgoing packet lengths, sum"
attr unit b
statistic Net.host[0].wlan[0].queue outgoingPacketLengths:histogram
field count 1
field mean 224
field stddev nan
field min 224
field max 224
field sum 224
field sqrsum 50176
attr interpolationmode none
attr recordingmode histogram
attr source packetLength(packetPulled)
attr title "outgoing packet lengths"
attr unit b
bin	-inf	0
bin	223	0
bin	224	1
bin	225	0
statistic Net.host[0].wlan[0].queue flowQueueingTime:histogram
field count 0
field mean -nan
field stddev nan
field min nan
field max nan
field sum 0
field sqrsum 0
attr interpolationmode none
attr recordingmode histogram
attr source queueingTime(demuxFlow(packetPulled))
attr title "flow queueing times"
attr unit s
bin	-inf	0
bin	0	0
bin	1	0
scalar Net.host[0].wlan[0].queue incomingPackets:count 1
attr recordingmode count
attr source packetPushStarted
attr title "incoming packets, count"
attr unit pk
scalar Net.host[0].wlan[0].queue incomingPacketLengths:sum 224
attr interpolationmode none
attr recordingmode sum
attr source packetLength(packetPushStarted)
attr title "incoming packet lengths, sum"
attr unit b
statistic Net.host[0].wlan[0].queue incomingPacketLengths:histogram
field count 1
field mean 224
field stddev nan
field min 224
field max 224
field sum 224
field sqrsum 50176
attr interpolationmode none
attr recordingmode histogram
attr source packetLength(packetPushStarted)
attr title "incoming packet lengths"
attr unit b
bin	-inf	0
bin	223	0
bin	224	1
bin	225	0
scalar Net.host[0].wlan[0].queue droppedPacketsQueueOverflow:count 0
attr interpolationmode none
attr recordingmode count
attr source packetDropReasonIsQueueOverflow(packetDropped)
attr title "dropped packets: queue overflow, count"
attr unit pk
scalar Net.host[0].wlan[0].queue droppedPacketLengthsQueueOverflow:sum 0
attr interpolationmode none
attr recordingmode sum
attr source packetLength(packetDropReasonIsQueueOverflow(packetDropped))
attr title "dropped packet lengths: queue overflow, sum"
attr unit b
par Net.host[0].wlan[0].mac typename "\"inet.linklayer.acking.AckingMac\""
par Net.host[0].wlan[0].mac interfaceTableModule "\"Net.host[0].interfaceTable\""
par Net.host[0].wlan[0].mac address "\"auto\""
attr mutable ""
par Net.host[0].wlan[0].mac bitrate 2e+06bps
attr unit bps
par Net.host[0].wlan[0].mac mtu 4470B
attr unit B
par Net.host[0].wlan[0].mac headerLength 23B
attr unit B
par Net.host[0].wlan[0].mac promiscuous false
par Net.host[0].wlan[0].mac fullDuplex true
par Net.host[0].wlan[0].mac useAck true
par Net.host[0].wlan[0].mac ackTimeout 0.1s
attr unit s
scalar Net.host[0].wlan[0].mac rcvdPkFromLl:count 1
attr interpolationmode none
attr recordingmode count
attr source packetReceivedFromLower
attr title "packets received from lower layer, count"
scalar Net.host[0].wlan[0].mac rcvdPkFromLl:sum(packetBytes) 51
attr interpolationmode none
attr recordingmode sum(packetBytes)
attr source packetReceivedFromLower
attr title "packets received from lower layer, sum(packetBytes)"
scalar Net.host[0].wlan[0].mac sentDownPk:count 1
attr interpolationmode none
attr recordingmode count
attr source packetSentToLower
attr title "packets sent to lower layer, count"
scalar Net.host[0].wlan[0].mac sentDownPk:sum(packetBytes) 51
attr interpolationmode none
attr recordingmode sum(packetBytes)
attr source packetSentToLower
attr title "packets sent to lower layer, sum(packetBytes)"
scalar Net.host[0].wlan[0].mac rcvdPkFromHl:count 0
attr interpolationmode none
attr recordingmode count
attr source packetReceivedFromUpper
attr title "packets received from higher layer, count"
scalar Net.host[0].wlan[0].mac rcvdPkFromHl:sum(packetBytes) 0
attr interpolationmode none
attr recordingmode sum(packetBytes)
attr source packetReceivedFromUpper
attr title "packets received from higher layer, sum(packetBytes)"
scalar Net.host[0].wlan[0].mac passedUpPk:count 1
attr interpolationmode none
attr recordingmode count
attr source packetSentToUpper
attr title "packets passed to higher layer, count"
scalar Net.host[0].wlan[0].mac passedUpPk:sum(packetBytes) 28
attr interpolationmode none
attr recordingmode sum(packetBytes)
attr source packetSentToUpper
attr title "packets passed to higher layer, sum(packetBytes)"
scalar Net.host[0].wlan[0].mac packetDropIncorrectlyReceived:count 0
attr interpolationmode none
attr recordingmode count
attr source packetDropReasonIsIncorrectlyReceived(packetDropped)
attr title "packet drop: incorrectly received, count"
scalar Net.host[0].wlan[0].mac packetDropIncorrectlyReceived:sum(packetBytes) 0
attr interpolationmode none
attr recordingmode sum(packetBytes)
attr source packetDropReasonIsIncorrectlyReceived(packetDropped)
attr title "packet drop: incorrectly received, sum(packetBytes)"
scalar Net.host[0].wlan[0].mac packetDropInterfaceDown:count 0
attr interpolationmode none
attr recordingmode count
attr source packetDropReasonIsInterfaceDown(packetDropped)
attr title "packet drop: interface down, count"
scalar Net.host[0].wlan[0].mac packetDropInterfaceDown:sum(packetBytes) 0
attr interpolationmode none
attr recordingmode sum(packetBytes)
attr source packetDropReasonIsInterfaceDown(packetDropped)
attr title "packet drop: interface down, sum(packetBytes)"
scalar Net.host[0].wlan[0].mac packetDropNotAddressedToUs:count 0
attr interpolationmode none
attr recordingmode count
attr source packetDropReasonIsNotAddressedToUs(packetDropped)
attr title "packet drop: not addressed to us, count"
scalar Net.host[0].wlan[0].mac packetDropNotAddressedToUs:sum(packetBytes) 0
attr interpolationmode none
attr recordingmode sum(packetBytes)
attr source packetDropReasonIsNotAddressedToUs(packetDropped)
attr title "packet drop: not addressed to us, sum(packetBytes)"
scalar Net.host[0].wlan[0].mac linkBroken:count 0
attr interpolationmode none
attr recordingmode count
attr source linkBroken
attr title "link break, count"
par Net.host[0].wlan[0].radio.antenna typename "\"inet.physicallayer.wireless.common.antenna.IsotropicAntenna\""
par Net.host[0].wlan[0].radio.antenna mobilityModule "\"^.^.^.mobility\""
par Net.host[0].wlan[0].radio.antenna numAntennas 1
par Net.host[0].wlan[0].radio.transmitter typename "\"inet.physicallayer.wireless.unitdisk.UnitDiskTransmitter\""
par Net.host[0].wlan[0].radio.transmitter preambleDuration 0s
attr unit s
par Net.host[0].wlan[0].radio.transmitter headerLength 96b
attr unit b
par Net.host[0].wlan[0].radio.transmitter bitrate 2e+06bps
attr unit bps
par Net.host[0].wlan[0].radio.transmitter communicationRange 250m
attr unit m
par Net.host[0].wlan[0].radio.transmitter interferenceRange 0m
attr unit m
par Net.host[0].wlan[0].radio.transmitter detectionRange 0m
attr unit m
par Net.host[0].wlan[0].radio.receiver typename "\"inet.physicallayer.wireless.unitdisk.UnitDiskReceiver\""
par Net.host[0].wlan[0].radio.receiver ignoreInterference true
par Net.host[0].wlan[0].radio typename "\"inet.physicallayer.wireless.unitdisk.UnitDiskRadio\""
par Net.host[0].wlan[0].radio radioMediumModule "\"radioMedium\""
par Net.host[0].wlan[0].radio energySourceModule "\"\""
par Net.host[0].wlan[0].radio initialRadioMode "\"off\""
attr enum off,sleep,receiver,transmitter,transceiver
par Net.host[0].wlan[0].radio switchingTimes "\"ms 0 0 0 0 0 0 0 0 0 0 0 0 0 0 0 0 0 0 0 0 0 0 0 0 0\""
par Net.host[0].wlan[0].radio sendRawBytes false
par Net.host[0].wlan[0].radio separateTransmissionParts false
par Net.host[0].wlan[0].radio separateReceptionParts false
par Net.host[0].wlan[0].radio displayCommunicationRange false
par Net.host[0].wlan[0].radio displayInterferenceRange false
scalar Net.host[0].wlan[0].radio radioMode:count 3
attr interpolationmode sample-hold
attr recordingmode count
attr source radioModeChanged
attr title "Radio mode, count"
scalar Net.host[0].wlan[0].radio receptionState:count 4
attr interpolationmode sample-hold
attr recordingmode count
attr source receptionStateChanged
attr title "Radio reception state, count"
scalar Net.host[0].wlan[0].radio transmissionState:count 3
attr interpolationmode sample-hold
attr recordingmode count
attr source transmissionStateChanged
attr title "Radio transmission state, count"
statistic Net.host[0].wlan[0].radio minSnir:histogram
field count 0
field mean -nan
field stddev nan
field min nan
field max nan
field sum 0
field sqrsum 0
attr recordingmode histogram
attr source minimumSnir(packetSentToUpper)
attr title "Min SNIR"
bin	-inf	0
bin	0	0
bin	1	0
statistic Net.host[0].wlan[0].radio packetErrorRate:histogram
field count 1
field mean 0
field stddev nan
field min 0
field max 0
field sum 0
field sqrsum 0
attr recordingmode histogram
attr source packetErrorRate(packetSentToUpper)
attr title "Packet error rate"
bin	-inf	0
bin	-0.5	0
bin	-0.48	0
bin	-0.46	0
bin	-0.44	0
bin	-0.42	0
bin	-0.4	0
bin	-0.38	0
bin	-0.36	0
bin	-0.34	0
bin	-0.32	0
bin	-0.3	0
bin	-0.28	0
bin	-0.26	0
bin	-0.24	0
bin	-0.22	0
bin	-0.2	0
bin	-0.18	0
bin	-0.16	0
bin	-0.14	0
bin	-0.12	0
bin	-0.1	0
bin	-0.08	0
bin	-0.06	0
bin	-0.04	0
bin	-0.02	0
bin	0	1
bin	0.02	0
bin	0.04	0
bin	0.06	0
bin	0.08	0
bin	0.1	0
bin	0.12	0
bin	0.14	0
bin	0.16	0
bin	0.18	0
bin	0.2	0
bin	0.22	0
bin	0.24	0
bin	0.26	0
bin	0.28	0
bin	0.3	0
bin	0.32	0
bin	0.34	0
bin	0.36	0
bin	0.38	0
bin	0.4	0
bin	0.42	0
bin	0.44	0
bin	0.46	0
bin	0.48	0
bin	0.5	0
statistic Net.host[0].wlan[0].radio bitErrorRate:histogram
field count 1
field mean 0
field stddev nan
field min 0
field max 0
field sum 0
field sqrsum 0
attr recordingmode histogram
attr source bitErrorRate(packetSentToUpper)
attr title "Bit error rate"
bin	-inf	0
bin	-0.5	0
bin	-0.48	0
bin	-0.46	0
bin	-0.44	0
bin	-0.42	0
bin	-0.4	0
bin	-0.38	0
bin	-0.36	0
bin	-0.34	0
bin	-0.32	0
bin	-0.3	0
bin	-0.28	0
bin	-0.26	0
bin	-0.24	0
bin	-0.22	0
bin	-0.2	0
bin	-0.18	0
bin	-0.16	0
bin	-0.14	0
bin	-0.12	0
bin	-0.1	0
bin	-0.08	0
bin	-0.06	0
bin	-0.04	0
bin	-0.02	0
bin	0	1
bin	0.02	0
bin	0.04	0
bin	0.06	0
bin	0.08	0
bin	0.1	0
bin	0.12	0
bin	0.14	0
bin	0.16	0
bin	0.18	0
bin	0.2	0
bin	0.22	0
bin	0.24	0
bin	0.26	0
bin	0.28	0
bin	0.3	0
bin	0.32	0
bin	0.34	0
bin	0.36	0
bin	0.38	0
bin	0.4	0
bin	0.42	0
bin	0.44	0
bin	0.46	0
bin	0.48	0
bin	0.5	0
statistic Net.host[0].wlan[0].radio symbolErrorRate:histogram
field count 1
field mean 0
field stddev nan
field min 0
field max 0
field sum 0
field sqrsum 0
attr recordingmode histogram
attr source symbolErrorRate(packetSentToUpper)
attr title "Symbol error rate"
bin	-inf	0
bin	-0.5	0
bin	-0.48	0
bin	-0.46	0
bin	-0.44	0
bin	-0.42	0
bin	-0.4	0
bin	-0.38	0
bin	-0.36	0
bin	-0.34	0
bin	-0.32	0
bin	-0.3	0
bin	-0.28	0
bin	-0.26	0
bin	-0.24	0
bin	-0.22	0
bin	-0.2	0
bin	-0.18	0
bin	-0.16	0
bin	-0.14	0
bin	-0.12	0
bin	-0.1	0
bin	-0.08	0
bin	-0.06	0
bin	-0.04	0
bin	-0.02	0
bin	0	1
bin	0.02	0
bin	0.04	0
bin	0.06	0
bin	0.08	0
bin	0.1	0
bin	0.12	0
bin	0.14	0
bin	0.16	0
bin	0.18	0
bin	0.2	0
bin	0.22	0
bin	0.24	0
bin	0.26	0
bin	0.28	0
bin	0.3	0
bin	0.32	0
bin	0.34	0
bin	0.36	0
bin	0.38	0
bin	0.4	0
bin	0.42	0
bin	0.44	0
bin	0.46	0
bin	0.48	0
bin	0.5	0
par Net.host[0].wlan[0] typename "\"inet.linklayer.acking.AckingWirelessInterface\""
par Net.host[0].wlan[0] displayStringTextFormat "\"%a (%i)\\n%m\""
par Net.host[0].wlan[0] recordPcap false
par Net.host[0].wlan[0] numPcapRecorders 0
par Net.host[0].wlan[0] interfaceTableModule "\"Net.host[0].interfaceTable\""
par Net.host[0].wlan[0] energySourceModule "\"\""
par Net.host[0].wlan[0] bitrate 2e+06bps
attr unit bps
scalar Net.host[0].wlan[0] packetDropInterfaceDown:count 0
attr interpolationmode none
attr recordingmode count
attr source packetDropReasonIsInterfaceDown(packetDropped)
attr title "packet drops: interface down, count"
scalar Net.host[0].wlan[0] packetDropInterfaceDown:sum(packetBytes) 0
attr interpolationmode none
attr recordingmode sum(packetBytes)
attr source packetDropReasonIsInterfaceDown(packetDropped)
attr title "packet drops: interface down, sum(packetBytes)"
scalar Net.host[0].wlan[0] packetDropNoCarrier:count 0
attr interpolationmode none
attr recordingmode count
attr source packetDropReasonIsNoCarrier(packetDropped)
attr title "packet drops: no carrier, count"
scalar Net.host[0].wlan[0] packetDropNoCarrier:sum(packetBytes) 0
attr interpolationmode none
attr recordingmode sum(packetBytes)
attr source packetDropReasonIsNoCarrier(packetDropped)
attr title "packet drops: no carrier, sum(packetBytes)"
par Net.host[0].ipv4.transportIn.channel typename "\"ned.IdealChannel\""
par Net.host[0].ipv4.up.out[0].channel typename "\"ned.IdealChannel\""
par Net.host[0].ipv4.lp.out[2].channel typename "\"ned.IdealChannel\""
par Net.host[0].ipv4.ifIn.channel typename "\"ned.IdealChannel\""
par Net.host[0].ipv4.configurator typename "\"inet.networklayer.configurator.ipv4.Ipv4NodeConfigurator\""
par Net.host[0].ipv4.configurator interfaceTableModule "\"Net.host[0].interfaceTable\""
par Net.host[0].ipv4.configurator routingTableModule "\"Net.host[0].ipv4.routingTable\""
par Net.host[0].ipv4.configurator networkConfiguratorModule "\"configurator\""
par Net.host[0].ipv4.configurator configureRoutingTable true
par Net.host[0].ipv4.routingTable typename "\"inet.networklayer.ipv4.Ipv4RoutingTable\""
par Net.host[0].ipv4.routingTable interfaceTableModule "\"Net.host[0].interfaceTable\""
par Net.host[0].ipv4.routingTable routerId "\"auto\""
par Net.host[0].ipv4.routingTable netmaskRoutes "\"*\""
par Net.host[0].ipv4.routingTable forwarding true
par Net.host[0].ipv4.routingTable multicastForwarding false
par Net.host[0].ipv4.routingTable useAdminDist false
par Net.host[0].ipv4.routingTable routingFile "\"\""
par Net.host[0].ipv4.natTable typename "\"inet.networklayer.ipv4.Ipv4NatTable\""
par Net.host[0].ipv4.natTable networkProtocolModule "\"^.ip\""
par Net.host[0].ipv4.natTable config "<config/> at content:1"
par Net.host[0].ipv4.up typename "\"inet.common.MessageDispatcher\""
par Net.host[0].ipv4.up displayStringTextFormat "\"processed %p pk (%l)\""
par Net.host[0].ipv4.up forwardServiceRegistration true
par Net.host[0].ipv4.up forwardProtocolRegistration true
par Net.host[0].ipv4.igmp typename "\"inet.networklayer.ipv4.Igmpv2\""
par Net.host[0].ipv4.igmp interfaceTableModule "\"Net.host[0].interfaceTable\""
par Net.host[0].ipv4.igmp routingTableModule "\"Net.host[0].ipv4.routingTable\""
par Net.host[0].ipv4.igmp crcMode "\"declared\""
attr enum declared,computed
par Net.host[0].ipv4.igmp enabled true
par Net.host[0].ipv4.igmp robustnessVariable 2
par Net.host[0].ipv4.igmp queryInterval 125s
attr unit s
par Net.host[0].ipv4.igmp queryResponseInterval 10s
attr unit s
par Net.host[0].ipv4.igmp groupMembershipInterval 260s
attr unit s
par Net.host[0].ipv4.igmp otherQuerierPresentInterval 255s
attr unit s
par Net.host[0].ipv4.igmp startupQueryInterval 31.25s
attr unit s
par Net.host[0].ipv4.igmp startupQueryCount 2
par Net.host[0].ipv4.igmp lastMemberQueryInterval 1s
attr unit s
par Net.host[0].ipv4.igmp lastMemberQueryCount 2
par Net.host[0].ipv4.igmp unsolicitedReportInterval 10s
attr unit s
par Net.host[0].ipv4.icmp typename "\"inet.networklayer.ipv4.Icmp\""
par Net.host[0].ipv4.icmp interfaceTableModule "\"Net.host[0].interfaceTable\""
par Net.host[0].ipv4.icmp routingTableModule "\"Net.host[0].ipv4.routingTable\""
par Net.host[0].ipv4.icmp crcMode "\"declared\""
attr enum declared,computed
attr mutable ""
par Net.host[0].ipv4.icmp quoteLength 8B
attr mutable ""
attr unit B
par Net.host[0].ipv4.mp typename "\"inet.common.MessageDispatcher\""
par Net.host[0].ipv4.mp displayStringTextFormat "\"processed %p pk (%l)\""
par Net.host[0].ipv4.mp forwardServiceRegistration true
par Net.host[0].ipv4.mp forwardProtocolRegistration true
par Net.host[0].ipv4.ip typename "\"inet.networklayer.ipv4.Ipv4\""
par Net.host[0].ipv4.ip interfaceTableModule "\"Net.host[0].interfaceTable\""
par Net.host[0].ipv4.ip routingTableModule "\"Net.host[0].ipv4.routingTable\""
par Net.host[0].ipv4.ip arpModule "\"Net.host[0].ipv4.arp\""
par Net.host[0].ipv4.ip icmpModule "\"Net.host[0].ipv4.icmp\""
par Net.host[0].ipv4.ip crcMode "\"declared\""
attr enum declared,computed
par Net.host[0].ipv4.ip timeToLive 32
par Net.host[0].ipv4.ip multicastTimeToLive 32
par Net.host[0].ipv4.ip fragmentTimeout 60s
attr unit s
par Net.host[0].ipv4.ip limitedBroadcast false
par Net.host[0].ipv4.ip directBroadcastInterfaces "\"\""
scalar Net.host[0].ipv4.ip packetDropAddressResolutionFailed:count 0
attr interpolationmode none
attr recordingmode count
attr source packetDropReasonIsAddressResolutionFailed(packetDropped)
attr title "packet drop: address resolution failed, count"
scalar Net.host[0].ipv4.ip packetDropAddressResolutionFailed:sum(packetBytes) 0
attr interpolationmode none
attr recordingmode sum(packetBytes)
attr source packetDropReasonIsAddressResolutionFailed(packetDropped)
attr title "packet drop: address resolution failed, sum(packetBytes)"
scalar Net.host[0].ipv4.ip packetDropHopLimitReached:count 0
attr interpolationmode none
attr recordingmode count
attr source packetDropReasonIsHopLimitReached(packetDropped)
attr title "packet drop: hop limit reached, count"
scalar Net.host[0].ipv4.ip packetDropHopLimitReached:sum(packetBytes) 0
attr interpolationmode none
attr recordingmode sum(packetBytes)
attr source packetDropReasonIsHopLimitReached(packetDropped)
attr title "packet drop: hop limit reached, sum(packetBytes)"
scalar Net.host[0].ipv4.ip packetDropForwardingDisabled:count 0
attr interpolationmode none
attr recordingmode count
attr source packetDropReasonIsForwardingDisabled(packetDropped)
attr title "packet drop: forwarding disabled, count"
scalar Net.host[0].ipv4.ip packetDropForwardingDisabled:sum(packetBytes) 0
attr interpolationmode none
attr recordingmode sum(packetBytes)
attr source packetDropReasonIsForwardingDisabled(packetDropped)
attr title "packet drop: forwarding disabled, sum(packetBytes)"
scalar Net.host[0].ipv4.ip packetDropNoInterfaceFound:count 0
attr interpolationmode none
attr recordingmode count
attr source packetDropReasonIsNoInterfaceFound(packetDropped)
attr title "packet drop: no interface found, count"
scalar Net.host[0].ipv4.ip packetDropNoInterfaceFound:sum(packetBytes) 0
attr interpolationmode none
attr recordingmode sum(packetBytes)
attr source packetDropReasonIsNoInterfaceFound(packetDropped)
attr title "packet drop: no interface found, sum(packetBytes)"
scalar Net.host[0].ipv4.ip packetDropNoRouteFound:count 0
attr interpolationmode none
attr recordingmode count
attr source packetDropReasonIsNoRouteFound(packetDropped)
attr title "packet drop: no route found, count"
scalar Net.host[0].ipv4.ip packetDropNoRouteFound:sum(packetBytes) 0
attr interpolationmode none
attr recordingmode sum(packetBytes)
attr source packetDropReasonIsNoRouteFound(packetDropped)
attr title "packet drop: no route found, sum(packetBytes)"
scalar Net.host[0].ipv4.ip packetDropUndefined:count 0
attr interpolationmode none
attr recordingmode count
attr source packetDropReasonIsUndefined(packetDropped)
attr title "packet drop: undefined, count"
scalar Net.host[0].ipv4.ip packetDropUndefined:sum(packetBytes) 0
attr interpolationmode none
attr recordingmode sum(packetBytes)
attr source packetDropReasonIsUndefined(packetDropped)
attr title "packet drop: undefined, sum(packetBytes)"
par Net.host[0].ipv4.arp typename "\"inet.networklayer.arp.ipv4.Arp\""
par Net.host[0].ipv4.arp interfaceTableModule "\"Net.host[0].interfaceTable\""
par Net.host[0].ipv4.arp routingTableModule "\"Net.host[0].ipv4.routingTable\""
par Net.host[0].ipv4.arp retryTimeout 1s
attr unit s
par Net.host[0].ipv4.arp retryCount 3
par Net.host[0].ipv4.arp cacheTimeout 120s
attr unit s
par Net.host[0].ipv4.arp proxyArpInterfaces "\"\""
scalar Net.host[0].ipv4.arp arpResolutionFailed:count 0
attr recordingmode count
attr title "ARP failed resolutions, count"
scalar Net.host[0].ipv4.arp arpResolutionCompleted:count 1
attr recordingmode count
attr title "ARP completed resolutions, count"
scalar Net.host[0].ipv4.arp arpResolutionInitiated:count 0
attr recordingmode count
attr title "ARP initiated resolutions, count"
scalar Net.host[0].ipv4.arp arpReplySent:count 1
attr recordingmode count
attr source arpReplySent
attr title "ARP replies sent, count"
scalar Net.host[0].ipv4.arp arpReplySent:sum(packetBytes) 28
attr recordingmode sum(packetBytes)
attr source arpReplySent
attr title "ARP replies sent, sum(packetBytes)"
scalar Net.host[0].ipv4.arp arpRequestSent:count 0
attr recordingmode count
attr source arpRequestSent
attr title "ARP request sent, count"
scalar Net.host[0].ipv4.arp arpRequestSent:sum(packetBytes) 0
attr recordingmode sum(packetBytes)
attr source arpRequestSent
attr title "ARP request sent, sum(packetBytes)"
par Net.host[0].ipv4.lp typename "\"inet.common.MessageDispatcher\""
par Net.host[0].ipv4.lp displayStringTextFormat "\"processed %p pk (%l)\""
par Net.host[0].ipv4.lp forwardServiceRegistration true
par Net.host[0].ipv4.lp forwardProtocolRegistration true
par Net.host[0].ipv4 typename "\"inet.networklayer.ipv4.Ipv4NetworkLayer\""
par Net.host[0].ipv4 forwarding true
par Net.host[0].ipv4 multicastForwarding false
par Net.host[0].ipv4 interfaceTableModule "\"Net.host[0].interfaceTable\""
par Net.host[0].ipv4 displayStringTextFormat "\"%i\""
par Net.host[0].nl typename "\"inet.common.MessageDispatcher\""
par Net.host[0].nl displayStringTextFormat "\"processed %p pk (%l)\""
par Net.host[0].nl forwardServiceRegistration true
par Net.host[0].nl forwardProtocolRegistration true
par Net.host[0].udp typename "\"inet.transportlayer.udp.Udp\""
par Net.host[0].udp interfaceTableModule "\"Net.host[0].interfaceTable\""
par Net.host[0].udp icmpModule "\"^.ipv4.icmp\""
par Net.host[0].udp icmpv6Module "\"^.ipv6.icmpv6\""
par Net.host[0].udp crcMode "\"declared\""
attr enum disabled,declared,computed
par Net.host[0].udp defaultMulticastLoop true
scalar Net.host[0].udp packetReceived:count 0
attr interpolationmode none
attr recordingmode count
attr source packetReceived
attr title "packets received, count"
scalar Net.host[0].udp packetReceived:sum(packetBytes) 0
attr interpolationmode none
attr recordingmode sum(packetBytes)
attr source packetReceived
attr title "packets received, sum(packetBytes)"
scalar Net.host[0].udp packetSent:count 0
attr interpolationmode none
attr recordingmode count
attr source packetSent
attr title "packets sent, count"
scalar Net.host[0].udp packetSent:sum(packetBytes) 0
attr interpolationmode none
attr recordingmode sum(packetBytes)
attr source packetSent
attr title "packets sent, sum(packetBytes)"
scalar Net.host[0].udp passedUpPk:count 0
attr interpolationmode none
attr recordingmode count
attr source packetSentToUpper
attr title "packets passed up, count"
scalar Net.host[0].udp droppedPkWrongPort:count 0
attr interpolationmode none
attr recordingmode count
attr source packetDropReasonIsNoPortFound(packetDropped)
attr title "packets dropped (wrong port), count"
scalar Net.host[0].udp droppedPkBadChecksum:count 0
attr interpolationmode none
attr recordingmode count
attr source packetDropReasonIsIncorrectlyReceived(packetDropped)
attr title "packets dropped (checksum error), count"
par Net.host[0].tcp typename "\"inet.transportlayer.tcp.Tcp\""
par Net.host[0].tcp crcMode "\"declared\""
attr enum declared,computed
par Net.host[0].tcp advertisedWindow 7504
par Net.host[0].tcp delayedAcksEnabled false
par Net.host[0].tcp nagleEnabled true
par Net.host[0].tcp limitedTransmitEnabled false
par Net.host[0].tcp increasedIWEnabled false
par Net.host[0].tcp sackSupport false
[...]
bin	-0.24	0
bin	-0.22	0
bin	-0.2	0
bin	-0.18	0
bin	-0.16	0
bin	-0.14	0
bin	-0.12	0
bin	-0.1	0
bin	-0.08	0
bin	-0.06	0
bin	-0.04	0
bin	-0.02	0
bin	0	1
bin	0.02	0
bin	0.04	0
bin	0.06	0
bin	0.08	0
bin	0.1	0
bin	0.12	0
bin	0.14	0
bin	0.16	0
bin	0.18	0
bin	0.2	0
bin	0.22	0
bin	0.24	0
bin	0.26	0
bin	0.28	0
bin	0.3	0
bin	0.32	0
bin	0.34	0
bin	0.36	0
bin	0.38	0
bin	0.4	0
bin	0.42	0
bin	0.44	0
bin	0.46	0
bin	0.48	0
bin	0.5	0
statistic Net.host[1].wlan[0].radio bitErrorRate:histogram
field count 1
field mean 0
field stddev nan
field min 0
field max 0
field sum 0
field sqrsum 0
attr recordingmode histogram
attr source bitErrorRate(packetSentToUpper)
attr title "Bit error rate"
bin	-inf	0
bin	-0.5	0
bin	-0.48	0
bin	-0.46	0
bin	-0.44	0
bin	-0.42	0
bin	-0.4	0
bin	-0.38	0
bin	-0.36	0
bin	-0.34	0
bin	-0.32	0
bin	-0.3	0
bin	-0.28	0
bin	-0.26	0
bin	-0.24	0
bin	-0.22	0
bin	-0.2	0
bin	-0.18	0
bin	-0.16	0
bin	-0.14	0
bin	-0.12	0
bin	-0.1	0
bin	-0.08	0
bin	-0.06	0
bin	-0.04	0
bin	-0.02	0
bin	0	1
bin	0.02	0
bin	0.04	0
bin	0.06	0
bin	0.08	0
bin	0.1	0
bin	0.12	0
bin	0.14	0
bin	0.16	0
bin	0.18	0
bin	0.2	0
bin	0.22	0
bin	0.24	0
bin	0.26	0
bin	0.28	0
bin	0.3	0
bin	0.32	0
bin	0.34	0
bin	0.36	0
bin	0.38	0
bin	0.4	0
bin	0.42	0
bin	0.44	0
bin	0.46	0
bin	0.48	0
bin	0.5	0
statistic Net.host[1].wlan[0].radio symbolErrorRate:histogram
field count 1
field mean 0
field stddev nan
field min 0
field max 0
field sum 0
field sqrsum 0
attr recordingmode histogram
attr source symbolErrorRate(packetSentToUpper)
attr title "Symbol error rate"
bin	-inf	0
bin	-0.5	0
bin	-0.48	0
bin	-0.46	0
bin	-0.44	0
bin	-0.42	0
bin	-0.4	0
bin	-0.38	0
bin	-0.36	0
bin	-0.34	0
bin	-0.32	0
bin	-0.3	0
bin	-0.28	0
bin	-0.26	0
bin	-0.24	0
bin	-0.22	0
bin	-0.2	0
bin	-0.18	0
bin	-0.16	0
bin	-0.14	0
bin	-0.12	0
bin	-0.1	0
bin	-0.08	0
bin	-0.06	0
bin	-0.04	0
bin	-0.02	0
bin	0	1
bin	0.02	0
bin	0.04	0
bin	0.06	0
bin	0.08	0
bin	0.1	0
bin	0.12	0
bin	0.14	0
bin	0.16	0
bin	0.18	0
bin	0.2	0
bin	0.22	0
bin	0.24	0
bin	0.26	0
bin	0.28	0
bin	0.3	0
bin	0.32	0
bin	0.34	0
bin	0.36	0
bin	0.38	0
bin	0.4	0
bin	0.42	0
bin	0.44	0
bin	0.46	0
bin	0.48	0
bin	0.5	0
par Net.host[1].wlan[0] typename "\"inet.linklayer.acking.AckingWirelessInterface\""
par Net.host[1].wlan[0] displayStringTextFormat "\"%a (%i)\\n%m\""
par Net.host[1].wlan[0] recordPcap false
par Net.host[1].wlan[0] numPcapRecorders 0
par Net.host[1].wlan[0] interfaceTableModule "\"Net.host[1].interfaceTable\""
par Net.host[1].wlan[0] energySourceModule "\"\""
par Net.host[1].wlan[0] bitrate 2e+06bps
attr unit bps
scalar Net.host[1].wlan[0] packetDropInterfaceDown:count 0
attr interpolationmode none
attr recordingmode count
attr source packetDropReasonIsInterfaceDown(packetDropped)
attr title "packet drops: interface down, count"
scalar Net.host[1].wlan[0] packetDropInterfaceDown:sum(packetBytes) 0
attr interpolationmode none
attr recordingmode sum(packetBytes)
attr source packetDropReasonIsInterfaceDown(packetDropped)
attr title "packet drops: interface down, sum(packetBytes)"
scalar Net.host[1].wlan[0] packetDropNoCarrier:count 0
attr interpolationmode none
attr recordingmode count
attr source packetDropReasonIsNoCarrier(packetDropped)
attr title "packet drops: no carrier, count"
scalar Net.host[1].wlan[0] packetDropNoCarrier:sum(packetBytes) 0
attr interpolationmode none
attr recordingmode sum(packetBytes)
attr source packetDropReasonIsNoCarrier(packetDropped)
attr title "packet drops: no carrier, sum(packetBytes)"
par Net.host[1].ipv4.transportIn.channel typename "\"ned.IdealChannel\""
par Net.host[1].ipv4.up.out[0].channel typename "\"ned.IdealChannel\""
par Net.host[1].ipv4.lp.out[2].channel typename "\"ned.IdealChannel\""
par Net.host[1].ipv4.ifIn.channel typename "\"ned.IdealChannel\""
par Net.host[1].ipv4.configurator typename "\"inet.networklayer.configurator.ipv4.Ipv4NodeConfigurator\""
par Net.host[1].ipv4.configurator interfaceTableModule "\"Net.host[1].interfaceTable\""
par Net.host[1].ipv4.configurator routingTableModule "\"Net.host[1].ipv4.routingTable\""
par Net.host[1].ipv4.configurator networkConfiguratorModule "\"configurator\""
par Net.host[1].ipv4.configurator configureRoutingTable true
par Net.host[1].ipv4.routingTable typename "\"inet.networklayer.ipv4.Ipv4RoutingTable\""
par Net.host[1].ipv4.routingTable interfaceTableModule "\"Net.host[1].interfaceTable\""
par Net.host[1].ipv4.routingTable routerId "\"auto\""
par Net.host[1].ipv4.routingTable netmaskRoutes "\"*\""
par Net.host[1].ipv4.routingTable forwarding true
par Net.host[1].ipv4.routingTable multicastForwarding false
par Net.host[1].ipv4.routingTable useAdminDist false
par Net.host[1].ipv4.routingTable routingFile "\"\""
par Net.host[1].ipv4.natTable typename "\"inet.networklayer.ipv4.Ipv4NatTable\""
par Net.host[1].ipv4.natTable networkProtocolModule "\"^.ip\""
par Net.host[1].ipv4.natTable config "<config/> at content:1"
par Net.host[1].ipv4.up typename "\"inet.common.MessageDispatcher\""
par Net.host[1].ipv4.up displayStringTextFormat "\"processed %p pk (%l)\""
par Net.host[1].ipv4.up forwardServiceRegistration true
par Net.host[1].ipv4.up forwardProtocolRegistration true
par Net.host[1].ipv4.igmp typename "\"inet.networklayer.ipv4.Igmpv2\""
par Net.host[1].ipv4.igmp interfaceTableModule "\"Net.host[1].interfaceTable\""
par Net.host[1].ipv4.igmp routingTableModule "\"Net.host[1].ipv4.routingTable\""
par Net.host[1].ipv4.igmp crcMode "\"declared\""
attr enum declared,computed
par Net.host[1].ipv4.igmp enabled true
par Net.host[1].ipv4.igmp robustnessVariable 2
par Net.host[1].ipv4.igmp queryInterval 125s
attr unit s
par Net.host[1].ipv4.igmp queryResponseInterval 10s
attr unit s
par Net.host[1].ipv4.igmp groupMembershipInterval 260s
attr unit s
par Net.host[1].ipv4.igmp otherQuerierPresentInterval 255s
attr unit s
par Net.host[1].ipv4.igmp startupQueryInterval 31.25s
attr unit s
par Net.host[1].ipv4.igmp startupQueryCount 2
par Net.host[1].ipv4.igmp lastMemberQueryInterval 1s
attr unit s
par Net.host[1].ipv4.igmp lastMemberQueryCount 2
par Net.host[1].ipv4.igmp unsolicitedReportInterval 10s
attr unit s
par Net.host[1].ipv4.icmp typename "\"inet.networklayer.ipv4.Icmp\""
par Net.host[1].ipv4.icmp interfaceTableModule "\"Net.host[1].interfaceTable\""
par Net.host[1].ipv4.icmp routingTableModule "\"Net.host[1].ipv4.routingTable\""
par Net.host[1].ipv4.icmp crcMode "\"declared\""
attr enum declared,computed
attr mutable ""
par Net.host[1].ipv4.icmp quoteLength 8B
attr mutable ""
attr unit B
par Net.host[1].ipv4.mp typename "\"inet.common.MessageDispatcher\""
par Net.host[1].ipv4.mp displayStringTextFormat "\"processed %p pk (%l)\""
par Net.host[1].ipv4.mp forwardServiceRegistration true
par Net.host[1].ipv4.mp forwardProtocolRegistration true
par Net.host[1].ipv4.ip typename "\"inet.networklayer.ipv4.Ipv4\""
par Net.host[1].ipv4.ip interfaceTableModule "\"Net.host[1].interfaceTable\""
par Net.host[1].ipv4.ip routingTableModule "\"Net.host[1].ipv4.routingTable\""
par Net.host[1].ipv4.ip arpModule "\"Net.host[1].ipv4.arp\""
par Net.host[1].ipv4.ip icmpModule "\"Net.host[1].ipv4.icmp\""
par Net.host[1].ipv4.ip crcMode "\"declared\""
attr enum declared,computed
par Net.host[1].ipv4.ip timeToLive 32
par Net.host[1].ipv4.ip multicastTimeToLive 32
par Net.host[1].ipv4.ip fragmentTimeout 60s
attr unit s
par Net.host[1].ipv4.ip limitedBroadcast false
par Net.host[1].ipv4.ip directBroadcastInterfaces "\"\""
scalar Net.host[1].ipv4.ip packetDropAddressResolutionFailed:count 0
attr interpolationmode none
attr recordingmode count
attr source packetDropReasonIsAddressResolutionFailed(packetDropped)
attr title "packet drop: address resolution failed, count"
scalar Net.host[1].ipv4.ip packetDropAddressResolutionFailed:sum(packetBytes) 0
attr interpolationmode none
attr recordingmode sum(packetBytes)
attr source packetDropReasonIsAddressResolutionFailed(packetDropped)
attr title "packet drop: address resolution failed, sum(packetBytes)"
scalar Net.host[1].ipv4.ip packetDropHopLimitReached:count 0
attr interpolationmode none
attr recordingmode count
attr source packetDropReasonIsHopLimitReached(packetDropped)
attr title "packet drop: hop limit reached, count"
scalar Net.host[1].ipv4.ip packetDropHopLimitReached:sum(packetBytes) 0
attr interpolationmode none
attr recordingmode sum(packetBytes)
attr source packetDropReasonIsHopLimitReached(packetDropped)
attr title "packet drop: hop limit reached, sum(packetBytes)"
scalar Net.host[1].ipv4.ip packetDropForwardingDisabled:count 0
attr interpolationmode none
attr recordingmode count
attr source packetDropReasonIsForwardingDisabled(packetDropped)
attr title "packet drop: forwarding disabled, count"
scalar Net.host[1].ipv4.ip packetDropForwardingDisabled:sum(packetBytes) 0
attr interpolationmode none
attr recordingmode sum(packetBytes)
attr source packetDropReasonIsForwardingDisabled(packetDropped)
attr title "packet drop: forwarding disabled, sum(packetBytes)"
scalar Net.host[1].ipv4.ip packetDropNoInterfaceFound:count 0
attr interpolationmode none
attr recordingmode count
attr source packetDropReasonIsNoInterfaceFound(packetDropped)
attr title "packet drop: no interface found, count"
scalar Net.host[1].ipv4.ip packetDropNoInterfaceFound:sum(packetBytes) 0
attr interpolationmode none
attr recordingmode sum(packetBytes)
attr source packetDropReasonIsNoInterfaceFound(packetDropped)
attr title "packet drop: no interface found, sum(packetBytes)"
scalar Net.host[1].ipv4.ip packetDropNoRouteFound:count 0
attr interpolationmode none
attr recordingmode count
attr source packetDropReasonIsNoRouteFound(packetDropped)
attr title "packet drop: no route found, count"
scalar Net.host[1].ipv4.ip packetDropNoRouteFound:sum(packetBytes) 0
attr interpolationmode none
attr recordingmode sum(packetBytes)
attr source packetDropReasonIsNoRouteFound(packetDropped)
attr title "packet drop: no route found, sum(packetBytes)"
scalar Net.host[1].ipv4.ip packetDropUndefined:count 0
attr interpolationmode none
attr recordingmode count
attr source packetDropReasonIsUndefined(packetDropped)
attr title "packet drop: undefined, count"
scalar Net.host[1].ipv4.ip packetDropUndefined:sum(packetBytes) 0
attr interpolationmode none
attr recordingmode sum(packetBytes)
attr source packetDropReasonIsUndefined(packetDropped)
attr title "packet drop: undefined, sum(packetBytes)"
par Net.host[1].ipv4.arp typename "\"inet.networklayer.arp.ipv4.Arp\""
par Net.host[1].ipv4.arp interfaceTableModule "\"Net.host[1].interfaceTable\""
par Net.host[1].ipv4.arp routingTableModule "\"Net.host[1].ipv4.routingTable\""
par Net.host[1].ipv4.arp retryTimeout 1s
attr unit s
par Net.host[1].ipv4.arp retryCount 3
par Net.host[1].ipv4.arp cacheTimeout 120s
attr unit s
par Net.host[1].ipv4.arp proxyArpInterfaces "\"\""
scalar Net.host[1].ipv4.arp arpResolutionFailed:count 0
attr recordingmode count
attr title "ARP failed resolutions, count"
scalar Net.host[1].ipv4.arp arpResolutionCompleted:count 1
attr recordingmode count
attr title "ARP completed resolutions, count"
scalar Net.host[1].ipv4.arp arpResolutionInitiated:count 1
attr recordingmode count
attr title "ARP initiated resolutions, count"
scalar Net.host[1].ipv4.arp arpReplySent:count 0
attr recordingmode count
attr source arpReplySent
attr title "ARP replies sent, count"
scalar Net.host[1].ipv4.arp arpReplySent:sum(packetBytes) 0
attr recordingmode sum(packetBytes)
attr source arpReplySent
attr title "ARP replies sent, sum(packetBytes)"
scalar Net.host[1].ipv4.arp arpRequestSent:count 1
attr recordingmode count
attr source arpRequestSent
attr title "ARP request sent, count"
scalar Net.host[1].ipv4.arp arpRequestSent:sum(packetBytes) 28
attr recordingmode sum(packetBytes)
attr source arpRequestSent
attr title "ARP request sent, sum(packetBytes)"
par Net.host[1].ipv4.lp typename "\"inet.common.MessageDispatcher\""
par Net.host[1].ipv4.lp displayStringTextFormat "\"processed %p pk (%l)\""
par Net.host[1].ipv4.lp forwardServiceRegistration true
par Net.host[1].ipv4.lp forwardProtocolRegistration true
par Net.host[1].ipv4 typename "\"inet.networklayer.ipv4.Ipv4NetworkLayer\""
par Net.host[1].ipv4 forwarding true
par Net.host[1].ipv4 multicastForwarding false
par Net.host[1].ipv4 interfaceTableModule "\"Net.host[1].interfaceTable\""
par Net.host[1].ipv4 displayStringTextFormat "\"%i\""
par Net.host[1].nl typename "\"inet.common.MessageDispatcher\""
par Net.host[1].nl displayStringTextFormat "\"processed %p pk (%l)\""
par Net.host[1].nl forwardServiceRegistration true
par Net.host[1].nl forwardProtocolRegistration true
par Net.host[1].udp typename "\"inet.transportlayer.udp.Udp\""
par Net.host[1].udp interfaceTableModule "\"Net.host[1].interfaceTable\""
par Net.host[1].udp icmpModule "\"^.ipv4.icmp\""
par Net.host[1].udp icmpv6Module "\"^.ipv6.icmpv6\""
par Net.host[1].udp crcMode "\"declared\""
attr enum disabled,declared,computed
par Net.host[1].udp defaultMulticastLoop true
scalar Net.host[1].udp packetReceived:count 0
attr interpolationmode none
attr recordingmode count
attr source packetReceived
attr title "packets received, count"
scalar Net.host[1].udp packetReceived:sum(packetBytes) 0
attr interpolationmode none
attr recordingmode sum(packetBytes)
attr source packetReceived
attr title "packets received, sum(packetBytes)"
scalar Net.host[1].udp packetSent:count 0
attr interpolationmode none
attr recordingmode count
attr source packetSent
attr title "packets sent, count"
scalar Net.host[1].udp packetSent:sum(packetBytes) 0
attr interpolationmode none
attr recordingmode sum(packetBytes)
attr source packetSent
attr title "packets sent, sum(packetBytes)"
scalar Net.host[1].udp passedUpPk:count 0
attr interpolationmode none
attr recordingmode count
attr source packetSentToUpper
attr title "packets passed up, count"
scalar Net.host[1].udp droppedPkWrongPort:count 0
attr interpolationmode none
attr recordingmode count
attr source packetDropReasonIsNoPortFound(packetDropped)
attr title "packets dropped (wrong port), count"
scalar Net.host[1].udp droppedPkBadChecksum:count 0
attr interpolationmode none
attr recordingmode count
attr source packetDropReasonIsIncorrectlyReceived(packetDropped)
attr title "packets dropped (checksum error), count"
par Net.host[1].tcp typename "\"inet.transportlayer.tcp.Tcp\""
par Net.host[1].tcp crcMode "\"declared\""
attr enum declared,computed
par Net.host[1].tcp advertisedWindow 7504
par Net.host[1].tcp delayedAcksEnabled false
par Net.host[1].tcp nagleEnabled true
par Net.host[1].tcp limitedTransmitEnabled false
par Net.host[1].tcp increasedIWEnabled false
par Net.host[1].tcp sackSupport false
par Net.host[1].tcp windowScalingSupport false
par Net.host[1].tcp windowScalingFactor -1
par Net.host[1].tcp timestampSupport false
par Net.host[1].tcp mss 536
par Net.host[1].tcp msl 120s
attr unit s
par Net.host[1].tcp tcpAlgorithmClass "\"TcpReno\""
attr enum TcpVegas,TcpWestwood,TcpNewReno,TcpReno,TcpTahoe,TcpNoCongestionControl
par Net.host[1].tcp useDataNotification false
par Net.host[1].tcp dupthresh 3
par Net.host[1].tcp initialSsthresh 4294967295
par Net.host[1].tcp stopOperationExtraTime 0s
attr unit s
par Net.host[1].tcp stopOperationTimeout 2s
attr unit s
par Net.host[1].tcp ecnWillingness false
par Net.host[1].tcp dctcpGamma 0.0625
par Net.host[1].tn typename "\"inet.common.MessageDispatcher\""
par Net.host[1].tn displayStringTextFormat "\"processed %p pk (%l)\""
par Net.host[1].tn forwardServiceRegistration true
par Net.host[1].tn forwardProtocolRegistration true
par Net.host[1].app[0] typename "\"inet.applications.pingapp.PingApp\""
par Net.host[1].app[0] destAddr "\"host[0]\""
par Net.host[1].app[0] srcAddr "\"\""
par Net.host[1].app[0] packetSize 56B
attr unit B
par Net.host[1].app[0] sendInterval 1s
attr unit s
par Net.host[1].app[0] hopLimit -1
par Net.host[1].app[0] count -1
par Net.host[1].app[0] startTime 2.69462s
attr unit s
par Net.host[1].app[0] stopTime -1s
attr unit s
par Net.host[1].app[0] sleepDuration 0s
attr unit s
par Net.host[1].app[0] continuous false
par Net.host[1].app[0] printPing true
par Net.host[1].app[0] crcMode "\"declared\""
attr enum declared,computed
par Net.host[1].app[0] networkProtocol "\"\""
par Net.host[1].app[0] stopOperationExtraTime -1s
attr unit s
par Net.host[1].app[0] stopOperationTimeout 2s
attr unit s
scalar Net.host[1].app[0] "Pings sent" 1
scalar Net.host[1].app[0] "ping loss rate (%)" 100
scalar Net.host[1].app[0] "ping out-of-order rate (%)" 0
scalar Net.host[1].app[0] pingRxSeq:count 0
attr interpolationmode none
attr recordingmode count
attr title "ping rx seq, count"
scalar Net.host[1].app[0] pingTxSeq:count 1
attr interpolationmode none
attr recordingmode count
attr title "ping tx seq, count"
scalar Net.host[1].app[0] numOutOfOrderArrivals:last nan
attr interpolationmode none
attr recordingmode last
attr title "ping out-of-order arrivals, last"
scalar Net.host[1].app[0] numLost:last nan
attr interpolationmode none
attr recordingmode last
attr title "pings lost, last"
statistic Net.host[1].app[0] rtt:histogram
field count 0
field mean -nan
field stddev nan
field min nan
field max nan
field sum 0
field sqrsum 0
attr interpolationmode none
attr recordingmode histogram
attr title "ping round-trip time"
attr unit s
bin	-inf	0
bin	0	0
bin	1	0
par Net.host[1].app[1] typename "\"inet.applications.pingapp.PingApp\""
par Net.host[1].app[1] destAddr "\"host[0]\""
par Net.host[1].app[1] srcAddr "\"\""
par Net.host[1].app[1] packetSize 56B
attr unit B
par Net.host[1].app[1] sendInterval 1s
attr unit s
par Net.host[1].app[1] hopLimit -1
par Net.host[1].app[1] count -1
par Net.host[1].app[1] startTime 8.49425s
attr unit s
par Net.host[1].app[1] stopTime -1s
attr unit s
par Net.host[1].app[1] sleepDuration 0s
attr unit s
par Net.host[1].app[1] continuous false
par Net.host[1].app[1] printPing true
par Net.host[1].app[1] crcMode "\"declared\""
attr enum declared,computed
par Net.host[1].app[1] networkProtocol "\"\""
par Net.host[1].app[1] stopOperationExtraTime -1s
attr unit s
par Net.host[1].app[1] stopOperationTimeout 2s
attr unit s
scalar Net.host[1].app[1] pingRxSeq:count 0
attr interpolationmode none
attr recordingmode count
attr title "ping rx seq, count"
scalar Net.host[1].app[1] pingTxSeq:count 0
attr interpolationmode none
attr recordingmode count
attr title "ping tx seq, count"
scalar Net.host[1].app[1] numOutOfOrderArrivals:last nan
attr interpolationmode none
attr recordingmode last
attr title "ping out-of-order arrivals, last"
scalar Net.host[1].app[1] numLost:last nan
attr interpolationmode none
attr recordingmode last
attr title "pings lost, last"
statistic Net.host[1].app[1] rtt:histogram
field count 0
field mean -nan
field stddev nan
field min nan
field max nan
field sum 0
field sqrsum 0
attr interpolationmode none
attr recordingmode histogram
attr title "ping round-trip time"
attr unit s
bin	-inf	0
bin	0	0
bin	1	0
par Net.host[1].at typename "\"inet.common.MessageDispatcher\""
par Net.host[1].at displayStringTextFormat "\"processed %p pk (%l)\""
par Net.host[1].at forwardServiceRegistration true
par Net.host[1].at forwardProtocolRegistration true
par Net.host[1] typename "\"inet.node.inet.AdhocHost\""
par Net.host[1] hasStatus false
par Net.host[1] osgModel "\"\""
par Net.host[1] osgModelColor "\"\""
par Net.host[1] canvasImage "\"\""
par Net.host[1] canvasImageColor "\"\""
par Net.host[1] recordPcap false
par Net.host[1] numPcapRecorders 0
par Net.host[1] numLoInterfaces 1
par Net.host[1] numWlanInterfaces 1
par Net.host[1] numEthInterfaces 0
par Net.host[1] numPppInterfaces 0
par Net.host[1] numTunInterfaces 0
par Net.host[1] numVirtInterfaces 0
par Net.host[1] fcsMode "\"declared\""
attr enum declared,computed
par Net.host[1] hasIpv4 true
par Net.host[1] hasIpv6 false
par Net.host[1] hasGn false
par Net.host[1] forwarding true
par Net.host[1] multicastForwarding false
par Net.host[1] hasUdp true
par Net.host[1] hasTcp true
par Net.host[1] hasSctp false
par Net.host[1] numApps 2
par Net typename "\"inet.examples.adhoc.idealwireless.Net\""
par Net numHosts 2

