version 3
run General-0-20221121-23:45:52-3215
attr configname General
attr datetime 20221121-23:45:52
attr datetimef 20221121-234552
attr experiment General
attr inifile omnetpp.ini
attr iterationvars ""
attr iterationvarsd ""
attr iterationvarsf ""
attr measurement ""
attr network AntennaDirectionalSelectivityExample
attr processid 3215
attr repetition 0
attr replication #0
attr resultdir results
attr runnumber 0
attr seedset 0
config image-path ../../../images
config network AntennaDirectionalSelectivityExample
config sim-time-limit 1h
config *.host*.mobility.constraintAreaMinZ 0m
config *.host*.mobility.constraintAreaMinX 0m
config *.host*.mobility.constraintAreaMinY 0m
config *.host*.mobility.constraintAreaMaxX 1000m
config *.host*.mobility.constraintAreaMaxY 1000m
config *.host*.mobility.constraintAreaMaxZ 0m
config *.hostA.numApps 1
config *.hostA.app[0].typename PingApp
config *.hostA.app[0].destAddr "\"hostB\""
config *.hostA.app[0].startTime 0s
config *.host*.wlan[*].radio.antenna.typename DipoleAntenna
config *.host*.wlan[*].radio.antenna.length 20cm

par AntennaDirectionalSelectivityExample.visualizer.sceneVisualizer typename "\"inet.visualizer.canvas.scene.SceneCanvasVisualizer\""
par AntennaDirectionalSelectivityExample.visualizer.sceneVisualizer visualizationTargetModule "\"^.^\""
par AntennaDirectionalSelectivityExample.visualizer.sceneVisualizer visualizationSubjectModule "\"^.^\""
par AntennaDirectionalSelectivityExample.visualizer.sceneVisualizer tags "\"\""
par AntennaDirectionalSelectivityExample.visualizer.sceneVisualizer physicalEnvironmentModule "\"physicalEnvironment\""
par AntennaDirectionalSelectivityExample.visualizer.sceneVisualizer networkNodeVisualizerModule "\"^.networkNodeVisualizer\""
par AntennaDirectionalSelectivityExample.visualizer.sceneVisualizer axisLength "nan m"
attr mutable ""
attr unit m
par AntennaDirectionalSelectivityExample.visualizer.sceneVisualizer animationSpeed 0
par AntennaDirectionalSelectivityExample.visualizer.sceneVisualizer sceneMinX "nan m"
attr unit m
par AntennaDirectionalSelectivityExample.visualizer.sceneVisualizer sceneMinY "nan m"
attr unit m
par AntennaDirectionalSelectivityExample.visualizer.sceneVisualizer sceneMinZ "nan m"
attr unit m
par AntennaDirectionalSelectivityExample.visualizer.sceneVisualizer sceneMaxX "nan m"
attr unit m
par AntennaDirectionalSelectivityExample.visualizer.sceneVisualizer sceneMaxY "nan m"
attr unit m
par AntennaDirectionalSelectivityExample.visualizer.sceneVisualizer sceneMaxZ "nan m"
attr unit m
par AntennaDirectionalSelectivityExample.visualizer.sceneVisualizer zIndex 0
par AntennaDirectionalSelectivityExample.visualizer.sceneVisualizer viewAngle "\"x right y down z out\""
attr mutable ""
par AntennaDirectionalSelectivityExample.visualizer.sceneVisualizer viewScale "\"1 1\""
attr mutable ""
par AntennaDirectionalSelectivityExample.visualizer.sceneVisualizer viewTranslation "\"0 0\""
attr mutable ""
par AntennaDirectionalSelectivityExample.visualizer.sceneVisualizer descriptionFigure "\"\""
par AntennaDirectionalSelectivityExample.visualizer.physicalEnvironmentVisualizer typename "\"inet.visualizer.canvas.environment.PhysicalEnvironmentCanvasVisualizer\""
par AntennaDirectionalSelectivityExample.visualizer.physicalEnvironmentVisualizer visualizationTargetModule "\"^.^\""
par AntennaDirectionalSelectivityExample.visualizer.physicalEnvironmentVisualizer visualizationSubjectModule "\"^.^\""
par AntennaDirectionalSelectivityExample.visualizer.physicalEnvironmentVisualizer tags "\"\""
par AntennaDirectionalSelectivityExample.visualizer.physicalEnvironmentVisualizer physicalEnvironmentModule "\"physicalEnvironment\""
par AntennaDirectionalSelectivityExample.visualizer.physicalEnvironmentVisualizer displayObjects true
par AntennaDirectionalSelectivityExample.visualizer.physicalEnvironmentVisualizer zIndex 0
par AntennaDirectionalSelectivityExample.visualizer.networkNodeVisualizer typename "\"inet.visualizer.canvas.scene.NetworkNodeCanvasVisualizer\""
par AntennaDirectionalSelectivityExample.visualizer.networkNodeVisualizer visualizationTargetModule "\"^.^\""
par AntennaDirectionalSelectivityExample.visualizer.networkNodeVisualizer visualizationSubjectModule "\"^.^\""
par AntennaDirectionalSelectivityExample.visualizer.networkNodeVisualizer tags "\"\""
par AntennaDirectionalSelectivityExample.visualizer.networkNodeVisualizer nodeFilter "\"*\""
attr mutable ""
par AntennaDirectionalSelectivityExample.visualizer.networkNodeVisualizer annotationSpacing 4
par AntennaDirectionalSelectivityExample.visualizer.networkNodeVisualizer placementPenalty 10
par AntennaDirectionalSelectivityExample.visualizer.networkNodeVisualizer zIndex 0
par AntennaDirectionalSelectivityExample.visualizer.networkConnectionVisualizer typename "\"inet.visualizer.canvas.scene.NetworkConnectionCanvasVisualizer\""
par AntennaDirectionalSelectivityExample.visualizer.networkConnectionVisualizer visualizationTargetModule "\"^.^\""
par AntennaDirectionalSelectivityExample.visualizer.networkConnectionVisualizer visualizationSubjectModule "\"^.^\""
par AntennaDirectionalSelectivityExample.visualizer.networkConnectionVisualizer tags "\"\""
par AntennaDirectionalSelectivityExample.visualizer.networkConnectionVisualizer displayNetworkConnections true
par AntennaDirectionalSelectivityExample.visualizer.networkConnectionVisualizer nodeFilter "\"\""
attr mutable ""
par AntennaDirectionalSelectivityExample.visualizer.networkConnectionVisualizer lineColor "\"black\""
par AntennaDirectionalSelectivityExample.visualizer.networkConnectionVisualizer lineStyle "\"solid\""
par AntennaDirectionalSelectivityExample.visualizer.networkConnectionVisualizer lineWidth 1
par AntennaDirectionalSelectivityExample.visualizer.networkConnectionVisualizer zIndex 0
par AntennaDirectionalSelectivityExample.visualizer.mobilityVisualizer typename "\"inet.visualizer.canvas.mobility.MobilityCanvasVisualizer\""
par AntennaDirectionalSelectivityExample.visualizer.mobilityVisualizer visualizationTargetModule "\"^.^\""
par AntennaDirectionalSelectivityExample.visualizer.mobilityVisualizer visualizationSubjectModule "\"^.^\""
par AntennaDirectionalSelectivityExample.visualizer.mobilityVisualizer tags "\"\""
par AntennaDirectionalSelectivityExample.visualizer.mobilityVisualizer networkNodeVisualizerModule "\"^.networkNodeVisualizer\""
par AntennaDirectionalSelectivityExample.visualizer.mobilityVisualizer displayMobility true
par AntennaDirectionalSelectivityExample.visualizer.mobilityVisualizer animationSpeed 0
par AntennaDirectionalSelectivityExample.visualizer.mobilityVisualizer moduleFilter "\"**.mobility\""
attr mutable ""
par AntennaDirectionalSelectivityExample.visualizer.mobilityVisualizer displayPositions false
par AntennaDirectionalSelectivityExample.visualizer.mobilityVisualizer positionCircleRadius 4
par AntennaDirectionalSelectivityExample.visualizer.mobilityVisualizer positionCircleLineWidth 1
par AntennaDirectionalSelectivityExample.visualizer.mobilityVisualizer positionCircleLineColor "\"dark\""
attr enum light,dark
par AntennaDirectionalSelectivityExample.visualizer.mobilityVisualizer positionCircleFillColor "\"dark\""
attr enum light,dark
par AntennaDirectionalSelectivityExample.visualizer.mobilityVisualizer displayOrientations false
par AntennaDirectionalSelectivityExample.visualizer.mobilityVisualizer orientationPieRadius 32
par AntennaDirectionalSelectivityExample.visualizer.mobilityVisualizer orientationPieSize 0.2
par AntennaDirectionalSelectivityExample.visualizer.mobilityVisualizer orientationPieOpacity 0.25
par AntennaDirectionalSelectivityExample.visualizer.mobilityVisualizer orientationLineColor "\"black\""
par AntennaDirectionalSelectivityExample.visualizer.mobilityVisualizer orientationLineStyle "\"solid\""
par AntennaDirectionalSelectivityExample.visualizer.mobilityVisualizer orientationLineWidth 1
par AntennaDirectionalSelectivityExample.visualizer.mobilityVisualizer orientationFillColor "\"blue\""
par AntennaDirectionalSelectivityExample.visualizer.mobilityVisualizer displayVelocities false
par AntennaDirectionalSelectivityExample.visualizer.mobilityVisualizer velocityArrowScale 1
par AntennaDirectionalSelectivityExample.visualizer.mobilityVisualizer velocityLineColor "\"black\""
par AntennaDirectionalSelectivityExample.visualizer.mobilityVisualizer velocityLineStyle "\"solid\""
par AntennaDirectionalSelectivityExample.visualizer.mobilityVisualizer velocityLineWidth 1
par AntennaDirectionalSelectivityExample.visualizer.mobilityVisualizer displayMovementTrails false
par AntennaDirectionalSelectivityExample.visualizer.mobilityVisualizer movementTrailLineColor "\"dark\""
attr enum light,dark
par AntennaDirectionalSelectivityExample.visualizer.mobilityVisualizer movementTrailLineStyle "\"solid\""
par AntennaDirectionalSelectivityExample.visualizer.mobilityVisualizer movementTrailLineWidth 1
par AntennaDirectionalSelectivityExample.visualizer.mobilityVisualizer trailLength 100
par AntennaDirectionalSelectivityExample.visualizer.mobilityVisualizer zIndex 0
par AntennaDirectionalSelectivityExample.visualizer.statisticVisualizer typename "\"inet.visualizer.canvas.common.StatisticCanvasVisualizer\""
par AntennaDirectionalSelectivityExample.visualizer.statisticVisualizer visualizationTargetModule "\"^.^\""
par AntennaDirectionalSelectivityExample.visualizer.statisticVisualizer visualizationSubjectModule "\"^.^\""
par AntennaDirectionalSelectivityExample.visualizer.statisticVisualizer tags "\"\""
par AntennaDirectionalSelectivityExample.visualizer.statisticVisualizer networkNodeVisualizerModule "\"^.networkNodeVisualizer\""
par AntennaDirectionalSelectivityExample.visualizer.statisticVisualizer displayStatistics true
par AntennaDirectionalSelectivityExample.visualizer.statisticVisualizer signalName "\"\""
par AntennaDirectionalSelectivityExample.visualizer.statisticVisualizer statisticName "\"\""
par AntennaDirectionalSelectivityExample.visualizer.statisticVisualizer statisticUnit "\"\""
par AntennaDirectionalSelectivityExample.visualizer.statisticVisualizer statisticExpression "\"\""
par AntennaDirectionalSelectivityExample.visualizer.statisticVisualizer sourceFilter "\"**\""
attr mutable ""
par AntennaDirectionalSelectivityExample.visualizer.statisticVisualizer format "\"%n: %v %u\""
attr mutable ""
par AntennaDirectionalSelectivityExample.visualizer.statisticVisualizer unit "\"\""
par AntennaDirectionalSelectivityExample.visualizer.statisticVisualizer font "\"<default>\""
par AntennaDirectionalSelectivityExample.visualizer.statisticVisualizer textColor "\"black\""
par AntennaDirectionalSelectivityExample.visualizer.statisticVisualizer backgroundColor "\"white\""
par AntennaDirectionalSelectivityExample.visualizer.statisticVisualizer opacity 1
par AntennaDirectionalSelectivityExample.visualizer.statisticVisualizer placementHint "\"top\""
par AntennaDirectionalSelectivityExample.visualizer.statisticVisualizer placementPriority 0
par AntennaDirectionalSelectivityExample.visualizer.statisticVisualizer zIndex 10
par AntennaDirectionalSelectivityExample.visualizer.statisticVisualizer propertyName "\"\""
par AntennaDirectionalSelectivityExample.visualizer.statisticVisualizer propertyIndex "\"\""
par AntennaDirectionalSelectivityExample.visualizer.infoVisualizer typename "\"inet.visualizer.canvas.common.InfoCanvasVisualizer\""
par AntennaDirectionalSelectivityExample.visualizer.infoVisualizer visualizationTargetModule "\"^.^\""
par AntennaDirectionalSelectivityExample.visualizer.infoVisualizer visualizationSubjectModule "\"^.^\""
par AntennaDirectionalSelectivityExample.visualizer.infoVisualizer tags "\"\""
par AntennaDirectionalSelectivityExample.visualizer.infoVisualizer networkNodeVisualizerModule "\"^.networkNodeVisualizer\""
par AntennaDirectionalSelectivityExample.visualizer.infoVisualizer displayInfos true
par AntennaDirectionalSelectivityExample.visualizer.infoVisualizer modules "\"\""
attr mutable ""
par AntennaDirectionalSelectivityExample.visualizer.infoVisualizer format "\"%t\""
attr mutable ""
par AntennaDirectionalSelectivityExample.visualizer.infoVisualizer font "\"<default>\""
par AntennaDirectionalSelectivityExample.visualizer.infoVisualizer textColor "\"black\""
par AntennaDirectionalSelectivityExample.visualizer.infoVisualizer backgroundColor "\"white\""
par AntennaDirectionalSelectivityExample.visualizer.infoVisualizer opacity 1
par AntennaDirectionalSelectivityExample.visualizer.infoVisualizer placementHint "\"top\""
par AntennaDirectionalSelectivityExample.visualizer.infoVisualizer placementPriority 0
par AntennaDirectionalSelectivityExample.visualizer.infoVisualizer zIndex 10
par AntennaDirectionalSelectivityExample.visualizer.energyStorageVisualizer typename "\"inet.visualizer.canvas.power.EnergyStorageCanvasVisualizer\""
par AntennaDirectionalSelectivityExample.visualizer.energyStorageVisualizer visualizationTargetModule "\"^.^\""
par AntennaDirectionalSelectivityExample.visualizer.energyStorageVisualizer visualizationSubjectModule "\"^.^\""
par AntennaDirectionalSelectivityExample.visualizer.energyStorageVisualizer tags "\"\""
par AntennaDirectionalSelectivityExample.visualizer.energyStorageVisualizer networkNodeVisualizerModule "\"^.networkNodeVisualizer\""
par AntennaDirectionalSelectivityExample.visualizer.energyStorageVisualizer displayEnergyStorages false
par AntennaDirectionalSelectivityExample.visualizer.energyStorageVisualizer energyStorageFilter "\"**\""
par AntennaDirectionalSelectivityExample.visualizer.energyStorageVisualizer color "\"green\""
par AntennaDirectionalSelectivityExample.visualizer.energyStorageVisualizer width 8
par AntennaDirectionalSelectivityExample.visualizer.energyStorageVisualizer height 24
par AntennaDirectionalSelectivityExample.visualizer.energyStorageVisualizer spacing 2
par AntennaDirectionalSelectivityExample.visualizer.energyStorageVisualizer placementHint "\"right\""
par AntennaDirectionalSelectivityExample.visualizer.energyStorageVisualizer placementPriority 0
par AntennaDirectionalSelectivityExample.visualizer.energyStorageVisualizer zIndex 10
par AntennaDirectionalSelectivityExample.visualizer.mediumVisualizer typename "\"inet.visualizer.canvas.physicallayer.MediumCanvasVisualizer\""
par AntennaDirectionalSelectivityExample.visualizer.mediumVisualizer visualizationTargetModule "\"^.^\""
par AntennaDirectionalSelectivityExample.visualizer.mediumVisualizer visualizationSubjectModule "\"^.^\""
par AntennaDirectionalSelectivityExample.visualizer.mediumVisualizer tags "\"\""
par AntennaDirectionalSelectivityExample.visualizer.mediumVisualizer mediumModule "\"radioMedium\""
par AntennaDirectionalSelectivityExample.visualizer.mediumVisualizer networkNodeVisualizerModule "\"^.networkNodeVisualizer\""
par AntennaDirectionalSelectivityExample.visualizer.mediumVisualizer nodeFilter "\"*\""
attr mutable ""
par AntennaDirectionalSelectivityExample.visualizer.mediumVisualizer interfaceFilter "\"*\""
attr mutable ""
par AntennaDirectionalSelectivityExample.visualizer.mediumVisualizer packetFilter "(omnetpp::cValueHolder)holder: \"*\""
attr mutable ""
par AntennaDirectionalSelectivityExample.visualizer.mediumVisualizer displaySignals false
par AntennaDirectionalSelectivityExample.visualizer.mediumVisualizer signalColor "\"dark\""
attr enum light,dark
par AntennaDirectionalSelectivityExample.visualizer.mediumVisualizer signalPropagationAnimationSpeed "nan "
attr mutable ""
par AntennaDirectionalSelectivityExample.visualizer.mediumVisualizer signalPropagationAnimationTime 1s
attr unit s
par AntennaDirectionalSelectivityExample.visualizer.mediumVisualizer signalPropagationAdditionalTime 0s
attr unit s
par AntennaDirectionalSelectivityExample.visualizer.mediumVisualizer signalTransmissionAnimationSpeed "nan "
attr mutable ""
par AntennaDirectionalSelectivityExample.visualizer.mediumVisualizer signalTransmissionAnimationTime 1s
attr unit s
par AntennaDirectionalSelectivityExample.visualizer.mediumVisualizer signalAnimationSpeedChangeTimeMode "\"realTime\""
attr enum realTime,animationTime,simulationTime
par AntennaDirectionalSelectivityExample.visualizer.mediumVisualizer signalAnimationSpeedChangeTime 1s
attr unit s
par AntennaDirectionalSelectivityExample.visualizer.mediumVisualizer displaySignalDepartures false
par AntennaDirectionalSelectivityExample.visualizer.mediumVisualizer signalDepartureImage "\"misc/signal_departure.png\""
par AntennaDirectionalSelectivityExample.visualizer.mediumVisualizer signalDeparturePlacementHint "\"topCenter\""
par AntennaDirectionalSelectivityExample.visualizer.mediumVisualizer signalDeparturePlacementPriority 1
par AntennaDirectionalSelectivityExample.visualizer.mediumVisualizer displaySignalArrivals false
par AntennaDirectionalSelectivityExample.visualizer.mediumVisualizer signalArrivalImage "\"misc/signal_arrival.png\""
par AntennaDirectionalSelectivityExample.visualizer.mediumVisualizer signalArrivalPlacementHint "\"topCenter\""
par AntennaDirectionalSelectivityExample.visualizer.mediumVisualizer signalArrivalPlacementPriority -1
par AntennaDirectionalSelectivityExample.visualizer.mediumVisualizer displayCommunicationRanges false
par AntennaDirectionalSelectivityExample.visualizer.mediumVisualizer communicationRangeLineColor "\"blue\""
par AntennaDirectionalSelectivityExample.visualizer.mediumVisualizer communicationRangeLineStyle "\"solid\""
par AntennaDirectionalSelectivityExample.visualizer.mediumVisualizer communicationRangeLineWidth 1
par AntennaDirectionalSelectivityExample.visualizer.mediumVisualizer displayInterferenceRanges false
par AntennaDirectionalSelectivityExample.visualizer.mediumVisualizer interferenceRangeLineColor "\"gray\""
par AntennaDirectionalSelectivityExample.visualizer.mediumVisualizer interferenceRangeLineStyle "\"solid\""
par AntennaDirectionalSelectivityExample.visualizer.mediumVisualizer interferenceRangeLineWidth 1
par AntennaDirectionalSelectivityExample.visualizer.mediumVisualizer autoPowerAxis true
par AntennaDirectionalSelectivityExample.visualizer.mediumVisualizer signalMinPower "inf dBmW"
attr unit dBmW
par AntennaDirectionalSelectivityExample.visualizer.mediumVisualizer signalMaxPower 0dBmW
attr unit dBmW
par AntennaDirectionalSelectivityExample.visualizer.mediumVisualizer signalMinPowerDensity "inf dBmWpMHz"
attr unit dBmWpMHz
par AntennaDirectionalSelectivityExample.visualizer.mediumVisualizer signalMaxPowerDensity "-inf dBmWpMHz"
attr unit dBmWpMHz
par AntennaDirectionalSelectivityExample.visualizer.mediumVisualizer autoTimeAxis true
par AntennaDirectionalSelectivityExample.visualizer.mediumVisualizer signalMinTime 0s
attr unit s
par AntennaDirectionalSelectivityExample.visualizer.mediumVisualizer signalMaxTime 0s
attr unit s
par AntennaDirectionalSelectivityExample.visualizer.mediumVisualizer autoFrequencyAxis true
par AntennaDirectionalSelectivityExample.visualizer.mediumVisualizer signalMinFrequency "inf Hz"
attr unit Hz
par AntennaDirectionalSelectivityExample.visualizer.mediumVisualizer signalMaxFrequency "-inf Hz"
attr unit Hz
par AntennaDirectionalSelectivityExample.visualizer.mediumVisualizer displayMainPowerDensityMap false
par AntennaDirectionalSelectivityExample.visualizer.mediumVisualizer mainPowerDensityMapPixmapDensity 1
par AntennaDirectionalSelectivityExample.visualizer.mediumVisualizer mainPowerDensityMapMinX 0
par AntennaDirectionalSelectivityExample.visualizer.mediumVisualizer mainPowerDensityMapMaxX "nan "
par AntennaDirectionalSelectivityExample.visualizer.mediumVisualizer mainPowerDensityMapMinY 0
par AntennaDirectionalSelectivityExample.visualizer.mediumVisualizer mainPowerDensityMapMaxY "nan "
par AntennaDirectionalSelectivityExample.visualizer.mediumVisualizer mainPowerDensityMapZ 0
par AntennaDirectionalSelectivityExample.visualizer.mediumVisualizer mainPowerDensityMapFigureXTickCount 3
par AntennaDirectionalSelectivityExample.visualizer.mediumVisualizer mainPowerDensityMapFigureYTickCount 3
par AntennaDirectionalSelectivityExample.visualizer.mediumVisualizer displayPowerDensityMaps false
par AntennaDirectionalSelectivityExample.visualizer.mediumVisualizer powerDensityMapMode "\"auto\""
attr enum total,signal,auto
par AntennaDirectionalSelectivityExample.visualizer.mediumVisualizer powerDensityMapPixelMode "\"mean\""
attr enum sample,partition,mean
par AntennaDirectionalSelectivityExample.visualizer.mediumVisualizer powerDensityMapApproximationSize 10
par AntennaDirectionalSelectivityExample.visualizer.mediumVisualizer powerDensityMapCenterFrequency "nan Hz"
attr mutable ""
attr unit Hz
par AntennaDirectionalSelectivityExample.visualizer.mediumVisualizer powerDensityMapBandwidth 0Hz
attr mutable ""
attr unit Hz
par AntennaDirectionalSelectivityExample.visualizer.mediumVisualizer powerDensityMapFigureWidth 200
par AntennaDirectionalSelectivityExample.visualizer.mediumVisualizer powerDensityMapFigureHeight 120
par AntennaDirectionalSelectivityExample.visualizer.mediumVisualizer powerDensityMapPixmapWidth 200
par AntennaDirectionalSelectivityExample.visualizer.mediumVisualizer powerDensityMapPixmapHeight 120
par AntennaDirectionalSelectivityExample.visualizer.mediumVisualizer powerDensityMapZ 0
par AntennaDirectionalSelectivityExample.visualizer.mediumVisualizer powerDensityMapFigureXTickCount 3
par AntennaDirectionalSelectivityExample.visualizer.mediumVisualizer powerDensityMapFigureYTickCount 3
par AntennaDirectionalSelectivityExample.visualizer.mediumVisualizer displaySpectrums false
par AntennaDirectionalSelectivityExample.visualizer.mediumVisualizer spectrumMode "\"auto\""
attr enum total,signal,auto
par AntennaDirectionalSelectivityExample.visualizer.mediumVisualizer spectrumFigureWidth 200
par AntennaDirectionalSelectivityExample.visualizer.mediumVisualizer spectrumFigureHeight 120
par AntennaDirectionalSelectivityExample.visualizer.mediumVisualizer spectrumFigureXTickCount 3
par AntennaDirectionalSelectivityExample.visualizer.mediumVisualizer spectrumFigureYTickCount 5
par AntennaDirectionalSelectivityExample.visualizer.mediumVisualizer spectrumFigureInterpolationSize 5
par AntennaDirectionalSelectivityExample.visualizer.mediumVisualizer spectrumPlacementHint "\"bottomCenter\""
par AntennaDirectionalSelectivityExample.visualizer.mediumVisualizer spectrumPlacementPriority -1
par AntennaDirectionalSelectivityExample.visualizer.mediumVisualizer displaySpectrograms false
par AntennaDirectionalSelectivityExample.visualizer.mediumVisualizer spectrogramMode "\"auto\""
attr enum total,signal,auto
par AntennaDirectionalSelectivityExample.visualizer.mediumVisualizer spectrogramPixelMode "\"mean\""
attr enum sample,partition,mean
par AntennaDirectionalSelectivityExample.visualizer.mediumVisualizer spectrogramFigureWidth 200
par AntennaDirectionalSelectivityExample.visualizer.mediumVisualizer spectrogramFigureHeight 120
par AntennaDirectionalSelectivityExample.visualizer.mediumVisualizer spectrogramPixmapWidth 200
par AntennaDirectionalSelectivityExample.visualizer.mediumVisualizer spectrogramPixmapHeight 120
par AntennaDirectionalSelectivityExample.visualizer.mediumVisualizer spectrogramFigureXTickCount 3
par AntennaDirectionalSelectivityExample.visualizer.mediumVisualizer spectrogramFigureYTickCount 5
par AntennaDirectionalSelectivityExample.visualizer.mediumVisualizer spectrogramPlacementHint "\"bottomCenter\""
par AntennaDirectionalSelectivityExample.visualizer.mediumVisualizer spectrogramPlacementPriority -1
par AntennaDirectionalSelectivityExample.visualizer.mediumVisualizer zIndex 0
par AntennaDirectionalSelectivityExample.visualizer.mediumVisualizer signalShape "\"ring\""
attr enum ring,sphere
par AntennaDirectionalSelectivityExample.visualizer.mediumVisualizer signalOpacity 0.5
par AntennaDirectionalSelectivityExample.visualizer.mediumVisualizer signalRingCount 20
par AntennaDirectionalSelectivityExample.visualizer.mediumVisualizer signalRingSize 50m
attr unit m
par AntennaDirectionalSelectivityExample.visualizer.mediumVisualizer signalFadingDistance 50m
attr unit m
par AntennaDirectionalSelectivityExample.visualizer.mediumVisualizer signalFadingFactor 1.2
par AntennaDirectionalSelectivityExample.visualizer.mediumVisualizer signalWaveCount 20
par AntennaDirectionalSelectivityExample.visualizer.mediumVisualizer signalWaveLength 50m
attr unit m
par AntennaDirectionalSelectivityExample.visualizer.mediumVisualizer signalWaveWidth 10m
attr unit m
par AntennaDirectionalSelectivityExample.visualizer.mediumVisualizer signalWaveFadingAnimationSpeedFactor 1
par AntennaDirectionalSelectivityExample.visualizer.mediumVisualizer displayCommunicationHeat false
par AntennaDirectionalSelectivityExample.visualizer.obstacleLossVisualizer typename "\"inet.visualizer.canvas.physicallayer.TracingObstacleLossCanvasVisualizer\""
par AntennaDirectionalSelectivityExample.visualizer.obstacleLossVisualizer visualizationTargetModule "\"^.^\""
par AntennaDirectionalSelectivityExample.visualizer.obstacleLossVisualizer visualizationSubjectModule "\"^.^\""
par AntennaDirectionalSelectivityExample.visualizer.obstacleLossVisualizer tags "\"\""
par AntennaDirectionalSelectivityExample.visualizer.obstacleLossVisualizer displayIntersections false
par AntennaDirectionalSelectivityExample.visualizer.obstacleLossVisualizer intersectionLineColor "\"red\""
par AntennaDirectionalSelectivityExample.visualizer.obstacleLossVisualizer intersectionLineStyle "\"solid\""
par AntennaDirectionalSelectivityExample.visualizer.obstacleLossVisualizer intersectionLineWidth 1
par AntennaDirectionalSelectivityExample.visualizer.obstacleLossVisualizer displayFaceNormalVectors false
par AntennaDirectionalSelectivityExample.visualizer.obstacleLossVisualizer faceNormalLineColor "\"grey\""
par AntennaDirectionalSelectivityExample.visualizer.obstacleLossVisualizer faceNormalLineStyle "\"solid\""
par AntennaDirectionalSelectivityExample.visualizer.obstacleLossVisualizer faceNormalLineWidth 1
par AntennaDirectionalSelectivityExample.visualizer.obstacleLossVisualizer fadeOutMode "\"realTime\""
attr enum realTime,animationTime,simulationTime
par AntennaDirectionalSelectivityExample.visualizer.obstacleLossVisualizer fadeOutTime 1s
attr unit s
par AntennaDirectionalSelectivityExample.visualizer.obstacleLossVisualizer fadeOutAnimationSpeed 0
par AntennaDirectionalSelectivityExample.visualizer.obstacleLossVisualizer zIndex 0
par AntennaDirectionalSelectivityExample.visualizer.packetDropVisualizer typename "\"inet.visualizer.canvas.common.PacketDropCanvasVisualizer\""
par AntennaDirectionalSelectivityExample.visualizer.packetDropVisualizer visualizationTargetModule "\"^.^\""
par AntennaDirectionalSelectivityExample.visualizer.packetDropVisualizer visualizationSubjectModule "\"^.^\""
par AntennaDirectionalSelectivityExample.visualizer.packetDropVisualizer tags "\"\""
par AntennaDirectionalSelectivityExample.visualizer.packetDropVisualizer displayPacketDrops false
par AntennaDirectionalSelectivityExample.visualizer.packetDropVisualizer nodeFilter "\"*\""
attr mutable ""
par AntennaDirectionalSelectivityExample.visualizer.packetDropVisualizer interfaceFilter "\"*\""
attr mutable ""
par AntennaDirectionalSelectivityExample.visualizer.packetDropVisualizer packetFilter "(omnetpp::cValueHolder)holder: \"*\""
attr mutable ""
par AntennaDirectionalSelectivityExample.visualizer.packetDropVisualizer detailsFilter "\"*\""
attr mutable ""
par AntennaDirectionalSelectivityExample.visualizer.packetDropVisualizer icon "\"msg/packet_s\""
par AntennaDirectionalSelectivityExample.visualizer.packetDropVisualizer iconTintAmount 1
par AntennaDirectionalSelectivityExample.visualizer.packetDropVisualizer iconTintColor "\"dark\""
par AntennaDirectionalSelectivityExample.visualizer.packetDropVisualizer labelFormat "\"%n\""
attr mutable ""
par AntennaDirectionalSelectivityExample.visualizer.packetDropVisualizer labelFont "\"<default>\""
par AntennaDirectionalSelectivityExample.visualizer.packetDropVisualizer labelColor "\"black\""
par AntennaDirectionalSelectivityExample.visualizer.packetDropVisualizer fadeOutMode "\"realTime\""
attr enum realTime,animationTime,simulationTime
par AntennaDirectionalSelectivityExample.visualizer.packetDropVisualizer fadeOutTime 1s
attr unit s
par AntennaDirectionalSelectivityExample.visualizer.packetDropVisualizer fadeOutAnimationSpeed 0
par AntennaDirectionalSelectivityExample.visualizer.packetDropVisualizer zIndex 10
par AntennaDirectionalSelectivityExample.visualizer.packetDropVisualizer dx 32
par AntennaDirectionalSelectivityExample.visualizer.packetDropVisualizer dy 64
par AntennaDirectionalSelectivityExample.visualizer.packetFlowVisualizer typename "\"inet.visualizer.canvas.flow.PacketFlowCanvasVisualizer\""
par AntennaDirectionalSelectivityExample.visualizer.packetFlowVisualizer visualizationTargetModule "\"^.^\""
par AntennaDirectionalSelectivityExample.visualizer.packetFlowVisualizer visualizationSubjectModule "\"^.^\""
par AntennaDirectionalSelectivityExample.visualizer.packetFlowVisualizer tags "\"\""
par AntennaDirectionalSelectivityExample.visualizer.packetFlowVisualizer displayRoutes false
par AntennaDirectionalSelectivityExample.visualizer.packetFlowVisualizer startPathSignal "\"packetFlowStarted\""
par AntennaDirectionalSelectivityExample.visualizer.packetFlowVisualizer extendPathSignal "\"packetReceivedFromLower\""
par AntennaDirectionalSelectivityExample.visualizer.packetFlowVisualizer endPathSignal "\"packetFlowEnded\""
par AntennaDirectionalSelectivityExample.visualizer.packetFlowVisualizer nodeFilter "\"*\""
attr mutable ""
par AntennaDirectionalSelectivityExample.visualizer.packetFlowVisualizer packetFilter "(omnetpp::cValueHolder)holder: \"*\""
attr mutable ""
par AntennaDirectionalSelectivityExample.visualizer.packetFlowVisualizer lineColor "\"dark\""
attr enum light,dark
par AntennaDirectionalSelectivityExample.visualizer.packetFlowVisualizer lineStyle "\"dashed\""
par AntennaDirectionalSelectivityExample.visualizer.packetFlowVisualizer lineWidth 3
par AntennaDirectionalSelectivityExample.visualizer.packetFlowVisualizer lineSmooth false
par AntennaDirectionalSelectivityExample.visualizer.packetFlowVisualizer lineShift 16
par AntennaDirectionalSelectivityExample.visualizer.packetFlowVisualizer lineShiftMode "\"normal\""
par AntennaDirectionalSelectivityExample.visualizer.packetFlowVisualizer lineContactSpacing 3
par AntennaDirectionalSelectivityExample.visualizer.packetFlowVisualizer lineContactMode "\"rectangular\""
attr enum circular,rectangular
par AntennaDirectionalSelectivityExample.visualizer.packetFlowVisualizer labelFormat "\"%L %p pk (%l)\""
par AntennaDirectionalSelectivityExample.visualizer.packetFlowVisualizer labelFont "\"<default>, 8px\""
par AntennaDirectionalSelectivityExample.visualizer.packetFlowVisualizer labelColor "\"\""
par AntennaDirectionalSelectivityExample.visualizer.packetFlowVisualizer fadeOutMode "\"realTime\""
attr enum realTime,animationTime,simulationTime
par AntennaDirectionalSelectivityExample.visualizer.packetFlowVisualizer fadeOutTime 0s
attr unit s
par AntennaDirectionalSelectivityExample.visualizer.packetFlowVisualizer fadeOutAnimationSpeed 0
par AntennaDirectionalSelectivityExample.visualizer.packetFlowVisualizer zIndex 4
par AntennaDirectionalSelectivityExample.visualizer.queueVisualizer typename "\"inet.visualizer.canvas.common.QueueCanvasVisualizer\""
par AntennaDirectionalSelectivityExample.visualizer.queueVisualizer visualizationTargetModule "\"^.^\""
par AntennaDirectionalSelectivityExample.visualizer.queueVisualizer visualizationSubjectModule "\"^.^\""
par AntennaDirectionalSelectivityExample.visualizer.queueVisualizer tags "\"\""
par AntennaDirectionalSelectivityExample.visualizer.queueVisualizer networkNodeVisualizerModule "\"^.networkNodeVisualizer\""
par AntennaDirectionalSelectivityExample.visualizer.queueVisualizer displayQueues false
par AntennaDirectionalSelectivityExample.visualizer.queueVisualizer queueFilter "\"**\""
par AntennaDirectionalSelectivityExample.visualizer.queueVisualizer color "\"blue\""
par AntennaDirectionalSelectivityExample.visualizer.queueVisualizer width 8
par AntennaDirectionalSelectivityExample.visualizer.queueVisualizer height 24
par AntennaDirectionalSelectivityExample.visualizer.queueVisualizer spacing 2
par AntennaDirectionalSelectivityExample.visualizer.queueVisualizer placementHint "\"right\""
par AntennaDirectionalSelectivityExample.visualizer.queueVisualizer placementPriority 0
par AntennaDirectionalSelectivityExample.visualizer.queueVisualizer zIndex 10
par AntennaDirectionalSelectivityExample.visualizer.gateScheduleVisualizer typename "\"inet.visualizer.canvas.common.GateScheduleCanvasVisualizer\""
par AntennaDirectionalSelectivityExample.visualizer.gateScheduleVisualizer visualizationTargetModule "\"^.^\""
par AntennaDirectionalSelectivityExample.visualizer.gateScheduleVisualizer visualizationSubjectModule "\"^.^\""
par AntennaDirectionalSelectivityExample.visualizer.gateScheduleVisualizer tags "\"\""
par AntennaDirectionalSelectivityExample.visualizer.gateScheduleVisualizer networkNodeVisualizerModule "\"^.networkNodeVisualizer\""
par AntennaDirectionalSelectivityExample.visualizer.gateScheduleVisualizer displayGateSchedules false
par AntennaDirectionalSelectivityExample.visualizer.gateScheduleVisualizer labelFormat "\"%i %D\""
par AntennaDirectionalSelectivityExample.visualizer.gateScheduleVisualizer gateFilter "\"**\""
par AntennaDirectionalSelectivityExample.visualizer.gateScheduleVisualizer width 100
par AntennaDirectionalSelectivityExample.visualizer.gateScheduleVisualizer height 8
par AntennaDirectionalSelectivityExample.visualizer.gateScheduleVisualizer spacing 2
par AntennaDirectionalSelectivityExample.visualizer.gateScheduleVisualizer placementHint "\"right\""
par AntennaDirectionalSelectivityExample.visualizer.gateScheduleVisualizer placementPriority 0
par AntennaDirectionalSelectivityExample.visualizer.gateScheduleVisualizer displayDuration 0s
attr mutable ""
attr unit s
par AntennaDirectionalSelectivityExample.visualizer.gateScheduleVisualizer currentTimePosition 50
par AntennaDirectionalSelectivityExample.visualizer.gateScheduleVisualizer zIndex 10
par AntennaDirectionalSelectivityExample.visualizer.radioVisualizer typename "\"inet.visualizer.canvas.physicallayer.RadioCanvasVisualizer\""
par AntennaDirectionalSelectivityExample.visualizer.radioVisualizer visualizationTargetModule "\"^.^\""
par AntennaDirectionalSelectivityExample.visualizer.radioVisualizer visualizationSubjectModule "\"^.^\""
par AntennaDirectionalSelectivityExample.visualizer.radioVisualizer tags "\"\""
par AntennaDirectionalSelectivityExample.visualizer.radioVisualizer networkNodeVisualizerModule "\"^.networkNodeVisualizer\""
par AntennaDirectionalSelectivityExample.visualizer.radioVisualizer displayRadios false
par AntennaDirectionalSelectivityExample.visualizer.radioVisualizer displayRadioMode true
par AntennaDirectionalSelectivityExample.visualizer.radioVisualizer displayReceptionState true
par AntennaDirectionalSelectivityExample.visualizer.radioVisualizer displayTransmissionState true
par AntennaDirectionalSelectivityExample.visualizer.radioVisualizer displayAntennaLobes false
par AntennaDirectionalSelectivityExample.visualizer.radioVisualizer radioFilter "\"**\""
attr mutable ""
par AntennaDirectionalSelectivityExample.visualizer.radioVisualizer radioModeImages "\"block/process_vs block/timer_vs block/wrx_vs block/wtx_vs block/wrxtx_vs block/cogwheel_vs\""
par AntennaDirectionalSelectivityExample.visualizer.radioVisualizer receptionStateImages "\"- - misc/receiving misc/receiving\""
par AntennaDirectionalSelectivityExample.visualizer.radioVisualizer transmissionStateImages "\"- - misc/transmitting\""
par AntennaDirectionalSelectivityExample.visualizer.radioVisualizer width 16
par AntennaDirectionalSelectivityExample.visualizer.radioVisualizer height 16
par AntennaDirectionalSelectivityExample.visualizer.radioVisualizer placementHint "\"bottomRight\""
par AntennaDirectionalSelectivityExample.visualizer.radioVisualizer placementPriority 0
par AntennaDirectionalSelectivityExample.visualizer.radioVisualizer antennaLobeNormalize false
par AntennaDirectionalSelectivityExample.visualizer.radioVisualizer antennaLobeRelativeLabels false
par AntennaDirectionalSelectivityExample.visualizer.radioVisualizer antennaLobePlaneGlobal true
par AntennaDirectionalSelectivityExample.visualizer.radioVisualizer antennaLobePlane "\"view\""
attr enum view,xy,xz,yz
par AntennaDirectionalSelectivityExample.visualizer.radioVisualizer antennaLobeMode "\"logarithmic\""
attr enum logarithmic,linear
par AntennaDirectionalSelectivityExample.visualizer.radioVisualizer antennaLobeLogarithmicBase 10
par AntennaDirectionalSelectivityExample.visualizer.radioVisualizer antennaLobeLogarithmicScale 100
par AntennaDirectionalSelectivityExample.visualizer.radioVisualizer antennaLobeRadius 100
par AntennaDirectionalSelectivityExample.visualizer.radioVisualizer antennaLobeStep 10deg
attr unit deg
par AntennaDirectionalSelectivityExample.visualizer.radioVisualizer antennaLobeOpacity 0.25
par AntennaDirectionalSelectivityExample.visualizer.radioVisualizer antennaLobeLineSmooth true
par AntennaDirectionalSelectivityExample.visualizer.radioVisualizer antennaLobeLineColor "\"black\""
par AntennaDirectionalSelectivityExample.visualizer.radioVisualizer antennaLobeLineStyle "\"solid\""
par AntennaDirectionalSelectivityExample.visualizer.radioVisualizer antennaLobeLineWidth 1
par AntennaDirectionalSelectivityExample.visualizer.radioVisualizer antennaLobeFillColor "\"white\""
par AntennaDirectionalSelectivityExample.visualizer.radioVisualizer zIndex 10
par AntennaDirectionalSelectivityExample.visualizer.physicalLinkVisualizer typename "\"inet.visualizer.canvas.physicallayer.PhysicalLinkCanvasVisualizer\""
par AntennaDirectionalSelectivityExample.visualizer.physicalLinkVisualizer visualizationTargetModule "\"^.^\""
par AntennaDirectionalSelectivityExample.visualizer.physicalLinkVisualizer visualizationSubjectModule "\"^.^\""
par AntennaDirectionalSelectivityExample.visualizer.physicalLinkVisualizer tags "\"\""
par AntennaDirectionalSelectivityExample.visualizer.physicalLinkVisualizer displayLinks false
par AntennaDirectionalSelectivityExample.visualizer.physicalLinkVisualizer activityLevel "\"service\""
attr enum service,peer,protocol
par AntennaDirectionalSelectivityExample.visualizer.physicalLinkVisualizer nodeFilter "\"*\""
attr mutable ""
par AntennaDirectionalSelectivityExample.visualizer.physicalLinkVisualizer interfaceFilter "\"*\""
attr mutable ""
par AntennaDirectionalSelectivityExample.visualizer.physicalLinkVisualizer packetFilter "(omnetpp::cValueHolder)holder: \"*\""
attr mutable ""
par AntennaDirectionalSelectivityExample.visualizer.physicalLinkVisualizer lineColor "\"olive\""
par AntennaDirectionalSelectivityExample.visualizer.physicalLinkVisualizer lineStyle "\"dotted\""
par AntennaDirectionalSelectivityExample.visualizer.physicalLinkVisualizer lineWidth 3
par AntennaDirectionalSelectivityExample.visualizer.physicalLinkVisualizer lineShift 16
par AntennaDirectionalSelectivityExample.visualizer.physicalLinkVisualizer lineShiftMode "\"normal\""
par AntennaDirectionalSelectivityExample.visualizer.physicalLinkVisualizer lineContactSpacing 3
par AntennaDirectionalSelectivityExample.visualizer.physicalLinkVisualizer lineContactMode "\"rectangular\""
attr enum circular,rectangular
par AntennaDirectionalSelectivityExample.visualizer.physicalLinkVisualizer labelFormat "\"%n\""
par AntennaDirectionalSelectivityExample.visualizer.physicalLinkVisualizer labelFont "\"<default>, 8px\""
par AntennaDirectionalSelectivityExample.visualizer.physicalLinkVisualizer labelColor "\"olive\""
par AntennaDirectionalSelectivityExample.visualizer.physicalLinkVisualizer fadeOutMode "\"realTime\""
attr enum realTime,animationTime,simulationTime
par AntennaDirectionalSelectivityExample.visualizer.physicalLinkVisualizer fadeOutTime 1s
attr unit s
par AntennaDirectionalSelectivityExample.visualizer.physicalLinkVisualizer fadeOutAnimationSpeed 0
par AntennaDirectionalSelectivityExample.visualizer.physicalLinkVisualizer holdAnimationTime 0s
attr unit s
par AntennaDirectionalSelectivityExample.visualizer.physicalLinkVisualizer zIndex 1
par AntennaDirectionalSelectivityExample.visualizer.interfaceTableVisualizer typename "\"inet.visualizer.canvas.linklayer.InterfaceTableCanvasVisualizer\""
par AntennaDirectionalSelectivityExample.visualizer.interfaceTableVisualizer visualizationTargetModule "\"^.^\""
par AntennaDirectionalSelectivityExample.visualizer.interfaceTableVisualizer visualizationSubjectModule "\"^.^\""
par AntennaDirectionalSelectivityExample.visualizer.interfaceTableVisualizer tags "\"\""
par AntennaDirectionalSelectivityExample.visualizer.interfaceTableVisualizer networkNodeVisualizerModule "\"^.networkNodeVisualizer\""
par AntennaDirectionalSelectivityExample.visualizer.interfaceTableVisualizer displayInterfaceTables false
par AntennaDirectionalSelectivityExample.visualizer.interfaceTableVisualizer displayWiredInterfacesAtConnections true
par AntennaDirectionalSelectivityExample.visualizer.interfaceTableVisualizer displayBackground false
par AntennaDirectionalSelectivityExample.visualizer.interfaceTableVisualizer nodeFilter "\"*\""
attr mutable ""
par AntennaDirectionalSelectivityExample.visualizer.interfaceTableVisualizer interfaceFilter "\"not(lo*)\""
attr mutable ""
par AntennaDirectionalSelectivityExample.visualizer.interfaceTableVisualizer format "\"%N %\\\\%a%/%l\""
attr mutable ""
par AntennaDirectionalSelectivityExample.visualizer.interfaceTableVisualizer placementHint "\"top\""
par AntennaDirectionalSelectivityExample.visualizer.interfaceTableVisualizer placementPriority 0
par AntennaDirectionalSelectivityExample.visualizer.interfaceTableVisualizer font "\"<default>\""
par AntennaDirectionalSelectivityExample.visualizer.interfaceTableVisualizer textColor "\"#005030\""
par AntennaDirectionalSelectivityExample.visualizer.interfaceTableVisualizer backgroundColor "\"white\""
par AntennaDirectionalSelectivityExample.visualizer.interfaceTableVisualizer opacity 1
par AntennaDirectionalSelectivityExample.visualizer.interfaceTableVisualizer zIndex 10
par AntennaDirectionalSelectivityExample.visualizer.dataLinkVisualizer typename "\"inet.visualizer.canvas.linklayer.DataLinkCanvasVisualizer\""
par AntennaDirectionalSelectivityExample.visualizer.dataLinkVisualizer visualizationTargetModule "\"^.^\""
par AntennaDirectionalSelectivityExample.visualizer.dataLinkVisualizer visualizationSubjectModule "\"^.^\""
par AntennaDirectionalSelectivityExample.visualizer.dataLinkVisualizer tags "\"\""
par AntennaDirectionalSelectivityExample.visualizer.dataLinkVisualizer displayLinks false
par AntennaDirectionalSelectivityExample.visualizer.dataLinkVisualizer activityLevel "\"service\""
attr enum service,peer,protocol
par AntennaDirectionalSelectivityExample.visualizer.dataLinkVisualizer nodeFilter "\"*\""
attr mutable ""
par AntennaDirectionalSelectivityExample.visualizer.dataLinkVisualizer interfaceFilter "\"*\""
attr mutable ""
par AntennaDirectionalSelectivityExample.visualizer.dataLinkVisualizer packetFilter "(omnetpp::cValueHolder)holder: \"*\""
attr mutable ""
par AntennaDirectionalSelectivityExample.visualizer.dataLinkVisualizer lineColor "\"darkcyan\""
par AntennaDirectionalSelectivityExample.visualizer.dataLinkVisualizer lineStyle "\"solid\""
par AntennaDirectionalSelectivityExample.visualizer.dataLinkVisualizer lineWidth 3
par AntennaDirectionalSelectivityExample.visualizer.dataLinkVisualizer lineShift 16
par AntennaDirectionalSelectivityExample.visualizer.dataLinkVisualizer lineShiftMode "\"normal\""
par AntennaDirectionalSelectivityExample.visualizer.dataLinkVisualizer lineContactSpacing 3
par AntennaDirectionalSelectivityExample.visualizer.dataLinkVisualizer lineContactMode "\"rectangular\""
attr enum circular,rectangular
par AntennaDirectionalSelectivityExample.visualizer.dataLinkVisualizer labelFormat "\"%n\""
par AntennaDirectionalSelectivityExample.visualizer.dataLinkVisualizer labelFont "\"<default>, 8px\""
par AntennaDirectionalSelectivityExample.visualizer.dataLinkVisualizer labelColor "\"darkcyan\""
par AntennaDirectionalSelectivityExample.visualizer.dataLinkVisualizer fadeOutMode "\"realTime\""
attr enum realTime,animationTime,simulationTime
par AntennaDirectionalSelectivityExample.visualizer.dataLinkVisualizer fadeOutTime 1s
attr unit s
par AntennaDirectionalSelectivityExample.visualizer.dataLinkVisualizer fadeOutAnimationSpeed 0
par AntennaDirectionalSelectivityExample.visualizer.dataLinkVisualizer holdAnimationTime 0s
attr unit s
par AntennaDirectionalSelectivityExample.visualizer.dataLinkVisualizer zIndex 2
par AntennaDirectionalSelectivityExample.visualizer.linkBreakVisualizer typename "\"inet.visualizer.canvas.linklayer.LinkBreakCanvasVisualizer\""
par AntennaDirectionalSelectivityExample.visualizer.linkBreakVisualizer visualizationTargetModule "\"^.^\""
par AntennaDirectionalSelectivityExample.visualizer.linkBreakVisualizer visualizationSubjectModule "\"^.^\""
par AntennaDirectionalSelectivityExample.visualizer.linkBreakVisualizer tags "\"\""
par AntennaDirectionalSelectivityExample.visualizer.linkBreakVisualizer displayLinkBreaks false
par AntennaDirectionalSelectivityExample.visualizer.linkBreakVisualizer nodeFilter "\"*\""
attr mutable ""
par AntennaDirectionalSelectivityExample.visualizer.linkBreakVisualizer interfaceFilter "\"*\""
attr mutable ""
par AntennaDirectionalSelectivityExample.visualizer.linkBreakVisualizer packetFilter "(omnetpp::cValueHolder)holder: \"*\""
attr mutable ""
par AntennaDirectionalSelectivityExample.visualizer.linkBreakVisualizer icon "\"status/stop\""
par AntennaDirectionalSelectivityExample.visualizer.linkBreakVisualizer iconTintAmount 0
par AntennaDirectionalSelectivityExample.visualizer.linkBreakVisualizer iconTintColor "\"\""
par AntennaDirectionalSelectivityExample.visualizer.linkBreakVisualizer fadeOutMode "\"realTime\""
attr enum realTime,animationTime,simulationTime
par AntennaDirectionalSelectivityExample.visualizer.linkBreakVisualizer fadeOutTime 1s
attr unit s
par AntennaDirectionalSelectivityExample.visualizer.linkBreakVisualizer fadeOutAnimationSpeed 0
par AntennaDirectionalSelectivityExample.visualizer.linkBreakVisualizer zIndex 2
par AntennaDirectionalSelectivityExample.visualizer.ieee80211Visualizer typename "\"inet.visualizer.canvas.linklayer.Ieee80211CanvasVisualizer\""
par AntennaDirectionalSelectivityExample.visualizer.ieee80211Visualizer visualizationTargetModule "\"^.^\""
par AntennaDirectionalSelectivityExample.visualizer.ieee80211Visualizer visualizationSubjectModule "\"^.^\""
par AntennaDirectionalSelectivityExample.visualizer.ieee80211Visualizer tags "\"\""
par AntennaDirectionalSelectivityExample.visualizer.ieee80211Visualizer networkNodeVisualizerModule "\"^.networkNodeVisualizer\""
par AntennaDirectionalSelectivityExample.visualizer.ieee80211Visualizer displayAssociations false
par AntennaDirectionalSelectivityExample.visualizer.ieee80211Visualizer nodeFilter "\"*\""
attr mutable ""
par AntennaDirectionalSelectivityExample.visualizer.ieee80211Visualizer interfaceFilter "\"*\""
attr mutable ""
par AntennaDirectionalSelectivityExample.visualizer.ieee80211Visualizer minPower -85dBm
attr unit dBm
par AntennaDirectionalSelectivityExample.visualizer.ieee80211Visualizer maxPower -50dBm
attr unit dBm
par AntennaDirectionalSelectivityExample.visualizer.ieee80211Visualizer icons "\"misc/signal_power_0 misc/signal_power_1 misc/signal_power_2 misc/signal_power_3\""
par AntennaDirectionalSelectivityExample.visualizer.ieee80211Visualizer iconColor "\"dark\""
attr enum light,dark
par AntennaDirectionalSelectivityExample.visualizer.ieee80211Visualizer labelFont "\"<default>\""
par AntennaDirectionalSelectivityExample.visualizer.ieee80211Visualizer labelColor "\"black\""
par AntennaDirectionalSelectivityExample.visualizer.ieee80211Visualizer placementHint "\"top\""
par AntennaDirectionalSelectivityExample.visualizer.ieee80211Visualizer placementPriority 0
par AntennaDirectionalSelectivityExample.visualizer.ieee80211Visualizer zIndex 2
par AntennaDirectionalSelectivityExample.visualizer.networkRouteVisualizer typename "\"inet.visualizer.canvas.networklayer.NetworkRouteCanvasVisualizer\""
par AntennaDirectionalSelectivityExample.visualizer.networkRouteVisualizer visualizationTargetModule "\"^.^\""
par AntennaDirectionalSelectivityExample.visualizer.networkRouteVisualizer visualizationSubjectModule "\"^.^\""
par AntennaDirectionalSelectivityExample.visualizer.networkRouteVisualizer tags "\"\""
par AntennaDirectionalSelectivityExample.visualizer.networkRouteVisualizer displayRoutes false
par AntennaDirectionalSelectivityExample.visualizer.networkRouteVisualizer startPathSignal "\"packetReceivedFromUpper\""
par AntennaDirectionalSelectivityExample.visualizer.networkRouteVisualizer extendPathSignal "\"packetReceivedFromLower\""
par AntennaDirectionalSelectivityExample.visualizer.networkRouteVisualizer endPathSignal "\"packetSentToUpper\""
par AntennaDirectionalSelectivityExample.visualizer.networkRouteVisualizer nodeFilter "\"*\""
attr mutable ""
par AntennaDirectionalSelectivityExample.visualizer.networkRouteVisualizer packetFilter "(omnetpp::cValueHolder)holder: \"*\""
attr mutable ""
par AntennaDirectionalSelectivityExample.visualizer.networkRouteVisualizer lineColor "\"dark\""
attr enum light,dark
par AntennaDirectionalSelectivityExample.visualizer.networkRouteVisualizer lineStyle "\"solid\""
par AntennaDirectionalSelectivityExample.visualizer.networkRouteVisualizer lineWidth 3
par AntennaDirectionalSelectivityExample.visualizer.networkRouteVisualizer lineSmooth false
par AntennaDirectionalSelectivityExample.visualizer.networkRouteVisualizer lineShift 16
par AntennaDirectionalSelectivityExample.visualizer.networkRouteVisualizer lineShiftMode "\"normal\""
par AntennaDirectionalSelectivityExample.visualizer.networkRouteVisualizer lineContactSpacing 3
par AntennaDirectionalSelectivityExample.visualizer.networkRouteVisualizer lineContactMode "\"rectangular\""
attr enum circular,rectangular
par AntennaDirectionalSelectivityExample.visualizer.networkRouteVisualizer labelFormat "\"%n\""
par AntennaDirectionalSelectivityExample.visualizer.networkRouteVisualizer labelFont "\"<default>, 8px\""
par AntennaDirectionalSelectivityExample.visualizer.networkRouteVisualizer labelColor "\"\""
par AntennaDirectionalSelectivityExample.visualizer.networkRouteVisualizer fadeOutMode "\"realTime\""
attr enum realTime,animationTime,simulationTime
par AntennaDirectionalSelectivityExample.visualizer.networkRouteVisualizer fadeOutTime 1s
attr unit s
par AntennaDirectionalSelectivityExample.visualizer.networkRouteVisualizer fadeOutAnimationSpeed 0
par AntennaDirectionalSelectivityExample.visualizer.networkRouteVisualizer zIndex 3
par AntennaDirectionalSelectivityExample.visualizer.routingTableVisualizer typename "\"inet.visualizer.canvas.networklayer.RoutingTableCanvasVisualizer\""
par AntennaDirectionalSelectivityExample.visualizer.routingTableVisualizer visualizationTargetModule "\"^.^\""
par AntennaDirectionalSelectivityExample.visualizer.routingTableVisualizer visualizationSubjectModule "\"^.^\""
par AntennaDirectionalSelectivityExample.visualizer.routingTableVisualizer tags "\"\""
par AntennaDirectionalSelectivityExample.visualizer.routingTableVisualizer displayRoutingTables false
par AntennaDirectionalSelectivityExample.visualizer.routingTableVisualizer displayRoutesIndividually true
par AntennaDirectionalSelectivityExample.visualizer.routingTableVisualizer displayLabels true
par AntennaDirectionalSelectivityExample.visualizer.routingTableVisualizer destinationFilter "\"*\""
attr mutable ""
par AntennaDirectionalSelectivityExample.visualizer.routingTableVisualizer nodeFilter "\"*\""
attr mutable ""
par AntennaDirectionalSelectivityExample.visualizer.routingTableVisualizer lineColor "\"black\""
par AntennaDirectionalSelectivityExample.visualizer.routingTableVisualizer lineStyle "\"solid\""
par AntennaDirectionalSelectivityExample.visualizer.routingTableVisualizer lineWidth 2
par AntennaDirectionalSelectivityExample.visualizer.routingTableVisualizer lineShift 16
par AntennaDirectionalSelectivityExample.visualizer.routingTableVisualizer lineShiftMode "\"normal\""
par AntennaDirectionalSelectivityExample.visualizer.routingTableVisualizer lineContactSpacing 3
par AntennaDirectionalSelectivityExample.visualizer.routingTableVisualizer lineContactMode "\"rectangular\""
attr enum circular,rectangular
par AntennaDirectionalSelectivityExample.visualizer.routingTableVisualizer labelFormat "\"%d/%m -> %g (%n)\""
attr mutable ""
par AntennaDirectionalSelectivityExample.visualizer.routingTableVisualizer labelFont "\"<default>, 8px\""
par AntennaDirectionalSelectivityExample.visualizer.routingTableVisualizer labelColor "\"black\""
par AntennaDirectionalSelectivityExample.visualizer.routingTableVisualizer zIndex 0
par AntennaDirectionalSelectivityExample.visualizer.transportRouteVisualizer typename "\"inet.visualizer.canvas.transportlayer.TransportRouteCanvasVisualizer\""
par AntennaDirectionalSelectivityExample.visualizer.transportRouteVisualizer visualizationTargetModule "\"^.^\""
par AntennaDirectionalSelectivityExample.visualizer.transportRouteVisualizer visualizationSubjectModule "\"^.^\""
par AntennaDirectionalSelectivityExample.visualizer.transportRouteVisualizer tags "\"\""
par AntennaDirectionalSelectivityExample.visualizer.transportRouteVisualizer displayRoutes false
par AntennaDirectionalSelectivityExample.visualizer.transportRouteVisualizer startPathSignal "\"packetReceivedFromUpper\""
par AntennaDirectionalSelectivityExample.visualizer.transportRouteVisualizer extendPathSignal "\"packetReceivedFromLower\""
par AntennaDirectionalSelectivityExample.visualizer.transportRouteVisualizer endPathSignal "\"packetSentToUpper\""
par AntennaDirectionalSelectivityExample.visualizer.transportRouteVisualizer nodeFilter "\"*\""
attr mutable ""
par AntennaDirectionalSelectivityExample.visualizer.transportRouteVisualizer packetFilter "(omnetpp::cValueHolder)holder: \"*\""
attr mutable ""
par AntennaDirectionalSelectivityExample.visualizer.transportRouteVisualizer lineColor "\"dark\""
attr enum light,dark
par AntennaDirectionalSelectivityExample.visualizer.transportRouteVisualizer lineStyle "\"solid\""
par AntennaDirectionalSelectivityExample.visualizer.transportRouteVisualizer lineWidth 3
par AntennaDirectionalSelectivityExample.visualizer.transportRouteVisualizer lineSmooth false
par AntennaDirectionalSelectivityExample.visualizer.transportRouteVisualizer lineShift 16
par AntennaDirectionalSelectivityExample.visualizer.transportRouteVisualizer lineShiftMode "\"normal\""
par AntennaDirectionalSelectivityExample.visualizer.transportRouteVisualizer lineContactSpacing 3
par AntennaDirectionalSelectivityExample.visualizer.transportRouteVisualizer lineContactMode "\"rectangular\""
attr enum circular,rectangular
par AntennaDirectionalSelectivityExample.visualizer.transportRouteVisualizer labelFormat "\"%n\""
par AntennaDirectionalSelectivityExample.visualizer.transportRouteVisualizer labelFont "\"<default>, 8px\""
par AntennaDirectionalSelectivityExample.visualizer.transportRouteVisualizer labelColor "\"\""
par AntennaDirectionalSelectivityExample.visualizer.transportRouteVisualizer fadeOutMode "\"realTime\""
attr enum realTime,animationTime,simulationTime
par AntennaDirectionalSelectivityExample.visualizer.transportRouteVisualizer fadeOutTime 1s
attr unit s
par AntennaDirectionalSelectivityExample.visualizer.transportRouteVisualizer fadeOutAnimationSpeed 0
par AntennaDirectionalSelectivityExample.visualizer.transportRouteVisualizer zIndex 4
par AntennaDirectionalSelectivityExample.visualizer.transportConnectionVisualizer typename "\"inet.visualizer.canvas.transportlayer.TransportConnectionCanvasVisualizer\""
par AntennaDirectionalSelectivityExample.visualizer.transportConnectionVisualizer visualizationTargetModule "\"^.^\""
par AntennaDirectionalSelectivityExample.visualizer.transportConnectionVisualizer visualizationSubjectModule "\"^.^\""
par AntennaDirectionalSelectivityExample.visualizer.transportConnectionVisualizer tags "\"\""
par AntennaDirectionalSelectivityExample.visualizer.transportConnectionVisualizer networkNodeVisualizerModule "\"^.networkNodeVisualizer\""
par AntennaDirectionalSelectivityExample.visualizer.transportConnectionVisualizer displayTransportConnections false
par AntennaDirectionalSelectivityExample.visualizer.transportConnectionVisualizer sourceNodeFilter "\"*\""
attr mutable ""
par AntennaDirectionalSelectivityExample.visualizer.transportConnectionVisualizer sourcePortFilter "\"*\""
attr mutable ""
par AntennaDirectionalSelectivityExample.visualizer.transportConnectionVisualizer destinationNodeFilter "\"*\""
attr mutable ""
par AntennaDirectionalSelectivityExample.visualizer.transportConnectionVisualizer destinationPortFilter "\"*\""
attr mutable ""
par AntennaDirectionalSelectivityExample.visualizer.transportConnectionVisualizer icon "\"misc/marker_s\""
par AntennaDirectionalSelectivityExample.visualizer.transportConnectionVisualizer iconColor "\"dark\""
attr enum light,dark
par AntennaDirectionalSelectivityExample.visualizer.transportConnectionVisualizer labelFont "\"<default>\""
par AntennaDirectionalSelectivityExample.visualizer.transportConnectionVisualizer labelColor "\"black\""
par AntennaDirectionalSelectivityExample.visualizer.transportConnectionVisualizer placementHint "\"top\""
par AntennaDirectionalSelectivityExample.visualizer.transportConnectionVisualizer placementPriority 0
par AntennaDirectionalSelectivityExample.visualizer.transportConnectionVisualizer zIndex 4
par AntennaDirectionalSelectivityExample.visualizer.failureProtectionConfigurationVisualizer typename "\"inet.visualizer.canvas.configurator.FailureProtectionConfigurationCanvasVisualizer\""
par AntennaDirectionalSelectivityExample.visualizer.failureProtectionConfigurationVisualizer visualizationTargetModule "\"^.^\""
par AntennaDirectionalSelectivityExample.visualizer.failureProtectionConfigurationVisualizer visualizationSubjectModule "\"^.^\""
par AntennaDirectionalSelectivityExample.visualizer.failureProtectionConfigurationVisualizer tags "\"\""
par AntennaDirectionalSelectivityExample.visualizer.failureProtectionConfigurationVisualizer displayTrees false
par AntennaDirectionalSelectivityExample.visualizer.failureProtectionConfigurationVisualizer lineColor "\"dark\""
attr enum light,dark
par AntennaDirectionalSelectivityExample.visualizer.failureProtectionConfigurationVisualizer lineStyle "\"solid\""
par AntennaDirectionalSelectivityExample.visualizer.failureProtectionConfigurationVisualizer lineWidth 3
par AntennaDirectionalSelectivityExample.visualizer.failureProtectionConfigurationVisualizer lineSmooth false
par AntennaDirectionalSelectivityExample.visualizer.failureProtectionConfigurationVisualizer lineShift 16
par AntennaDirectionalSelectivityExample.visualizer.failureProtectionConfigurationVisualizer lineShiftMode "\"normal\""
par AntennaDirectionalSelectivityExample.visualizer.failureProtectionConfigurationVisualizer lineContactSpacing 3
par AntennaDirectionalSelectivityExample.visualizer.failureProtectionConfigurationVisualizer lineContactMode "\"rectangular\""
attr enum circular,rectangular
par AntennaDirectionalSelectivityExample.visualizer.failureProtectionConfigurationVisualizer failureProtectionConfiguratorModule "\"failureProtectionConfigurator\""
par AntennaDirectionalSelectivityExample.visualizer.failureProtectionConfigurationVisualizer streamFilter "\"*\""
par AntennaDirectionalSelectivityExample.visualizer.failureProtectionConfigurationVisualizer zIndex 3
par AntennaDirectionalSelectivityExample.visualizer.streamRedundancyConfigurationVisualizer typename "\"inet.visualizer.canvas.configurator.StreamRedundancyConfigurationCanvasVisualizer\""
par AntennaDirectionalSelectivityExample.visualizer.streamRedundancyConfigurationVisualizer visualizationTargetModule "\"^.^\""
par AntennaDirectionalSelectivityExample.visualizer.streamRedundancyConfigurationVisualizer visualizationSubjectModule "\"^.^\""
par AntennaDirectionalSelectivityExample.visualizer.streamRedundancyConfigurationVisualizer tags "\"\""
par AntennaDirectionalSelectivityExample.visualizer.streamRedundancyConfigurationVisualizer displayTrees false
par AntennaDirectionalSelectivityExample.visualizer.streamRedundancyConfigurationVisualizer lineColor "\"dark\""
attr enum light,dark
par AntennaDirectionalSelectivityExample.visualizer.streamRedundancyConfigurationVisualizer lineStyle "\"solid\""
par AntennaDirectionalSelectivityExample.visualizer.streamRedundancyConfigurationVisualizer lineWidth 3
par AntennaDirectionalSelectivityExample.visualizer.streamRedundancyConfigurationVisualizer lineSmooth false
par AntennaDirectionalSelectivityExample.visualizer.streamRedundancyConfigurationVisualizer lineShift 16
par AntennaDirectionalSelectivityExample.visualizer.streamRedundancyConfigurationVisualizer lineShiftMode "\"normal\""
par AntennaDirectionalSelectivityExample.visualizer.streamRedundancyConfigurationVisualizer lineContactSpacing 3
par AntennaDirectionalSelectivityExample.visualizer.streamRedundancyConfigurationVisualizer lineContactMode "\"rectangular\""
attr enum circular,rectangular
par AntennaDirectionalSelectivityExample.visualizer.streamRedundancyConfigurationVisualizer streamRedundancyConfiguratorModule "\"streamRedundancyConfigurator\""
par AntennaDirectionalSelectivityExample.visualizer.streamRedundancyConfigurationVisualizer streamFilter "\"*\""
par AntennaDirectionalSelectivityExample.visualizer.streamRedundancyConfigurationVisualizer zIndex 3
par AntennaDirectionalSelectivityExample.visualizer typename "\"inet.visualizer.canvas.integrated.IntegratedCanvasVisualizer\""
par AntennaDirectionalSelectivityExample.configurator typename "\"inet.networklayer.configurator.ipv4.Ipv4NetworkConfigurator\""
par AntennaDirectionalSelectivityExample.configurator minLinkWeight 0.001
par AntennaDirectionalSelectivityExample.configurator configureIsolatedNetworksSeparatly false
par AntennaDirectionalSelectivityExample.configurator config "<config>...</config> at content:1"
par AntennaDirectionalSelectivityExample.configurator assignAddresses true
par AntennaDirectionalSelectivityExample.configurator assignUniqueAddresses true
par AntennaDirectionalSelectivityExample.configurator assignDisjunctSubnetAddresses true
par AntennaDirectionalSelectivityExample.configurator addStaticRoutes true
par AntennaDirectionalSelectivityExample.configurator addDefaultRoutes true
par AntennaDirectionalSelectivityExample.configurator addSubnetRoutes true
par AntennaDirectionalSelectivityExample.configurator addDirectRoutes true
par AntennaDirectionalSelectivityExample.configurator optimizeRoutes true
par AntennaDirectionalSelectivityExample.configurator dumpTopology false
par AntennaDirectionalSelectivityExample.configurator dumpLinks false
par AntennaDirectionalSelectivityExample.configurator dumpAddresses false
par AntennaDirectionalSelectivityExample.configurator dumpRoutes false
par AntennaDirectionalSelectivityExample.configurator dumpConfig "\"\""
par AntennaDirectionalSelectivityExample.radioMedium.propagation typename "\"inet.physicallayer.wireless.common.propagation.ConstantSpeedPropagation\""
par AntennaDirectionalSelectivityExample.radioMedium.propagation propagationSpeed 2.99792e+08mps
attr unit mps
par AntennaDirectionalSelectivityExample.radioMedium.propagation ignoreMovementDuringTransmission true
par AntennaDirectionalSelectivityExample.radioMedium.propagation ignoreMovementDuringPropagation true
par AntennaDirectionalSelectivityExample.radioMedium.propagation ignoreMovementDuringReception true
scalar AntennaDirectionalSelectivityExample.radioMedium.propagation "Arrival computation count" 7
par AntennaDirectionalSelectivityExample.radioMedium.analogModel typename "\"inet.physicallayer.wireless.common.analogmodel.packetlevel.ScalarAnalogModel\""
par AntennaDirectionalSelectivityExample.radioMedium.analogModel ignorePartialInterference false
par AntennaDirectionalSelectivityExample.radioMedium.backgroundNoise typename "\"inet.physicallayer.wireless.common.backgroundnoise.IsotropicScalarBackgroundNoise\""
par AntennaDirectionalSelectivityExample.radioMedium.backgroundNoise power -110dBm
attr unit dBm
par AntennaDirectionalSelectivityExample.radioMedium.backgroundNoise bandwidth "nan Hz"
attr unit Hz
par AntennaDirectionalSelectivityExample.radioMedium.pathLoss typename "\"inet.physicallayer.wireless.common.pathloss.FreeSpacePathLoss\""
par AntennaDirectionalSelectivityExample.radioMedium.pathLoss alpha 2
par AntennaDirectionalSelectivityExample.radioMedium.pathLoss systemLoss 0dB
attr unit dB
par AntennaDirectionalSelectivityExample.radioMedium.mediumLimitCache typename "\"inet.physicallayer.wireless.common.medium.MediumLimitCache\""
par AntennaDirectionalSelectivityExample.radioMedium.mediumLimitCache centerFrequency 2.4e+09Hz
attr unit Hz
par AntennaDirectionalSelectivityExample.radioMedium.mediumLimitCache maxSpeed "nan mps"
attr unit mps
par AntennaDirectionalSelectivityExample.radioMedium.mediumLimitCache maxTransmissionPower "nan W"
attr unit W
par AntennaDirectionalSelectivityExample.radioMedium.mediumLimitCache minInterferencePower -110dBm
attr unit dBm
par AntennaDirectionalSelectivityExample.radioMedium.mediumLimitCache minReceptionPower -85dBm
attr unit dBm
par AntennaDirectionalSelectivityExample.radioMedium.mediumLimitCache maxAntennaGain 0dB
attr unit dB
par AntennaDirectionalSelectivityExample.radioMedium.mediumLimitCache minInterferenceTime 1e-12s
attr unit s
par AntennaDirectionalSelectivityExample.radioMedium.mediumLimitCache maxTransmissionDuration 0.01s
attr unit s
par AntennaDirectionalSelectivityExample.radioMedium.mediumLimitCache maxCommunicationRange "nan m"
attr unit m
par AntennaDirectionalSelectivityExample.radioMedium.mediumLimitCache maxInterferenceRange "nan m"
attr unit m
par AntennaDirectionalSelectivityExample.radioMedium.communicationCache typename "\"inet.physicallayer.wireless.common.communicationcache.VectorCommunicationCache\""
par AntennaDirectionalSelectivityExample.radioMedium typename "\"inet.physicallayer.wireless.ieee80211.packetlevel.Ieee80211ScalarRadioMedium\""
par AntennaDirectionalSelectivityExample.radioMedium physicalEnvironmentModule "\"physicalEnvironment\""
par AntennaDirectionalSelectivityExample.radioMedium signalAnalogRepresentation "\"scalar\""
attr enum unitDisk,scalar,dimensional
par AntennaDirectionalSelectivityExample.radioMedium rangeFilter "\"\""
par AntennaDirectionalSelectivityExample.radioMedium radioModeFilter false
par AntennaDirectionalSelectivityExample.radioMedium listeningFilter false
par AntennaDirectionalSelectivityExample.radioMedium macAddressFilter false
par AntennaDirectionalSelectivityExample.radioMedium recordTransmissionLog false
par AntennaDirectionalSelectivityExample.radioMedium recordReceptionLog false
scalar AntennaDirectionalSelectivityExample.radioMedium "transmission count" 7
scalar AntennaDirectionalSelectivityExample.radioMedium "signal send count" 7
scalar AntennaDirectionalSelectivityExample.radioMedium "reception computation count" 7
scalar AntennaDirectionalSelectivityExample.radioMedium "interference computation count" 32
scalar AntennaDirectionalSelectivityExample.radioMedium "reception decision computation count" 7
scalar AntennaDirectionalSelectivityExample.radioMedium "listening decision computation count" 18
scalar AntennaDirectionalSelectivityExample.radioMedium "reception cache hit" 85.714285714286
attr unit %
scalar AntennaDirectionalSelectivityExample.radioMedium "interference cache hit" 66.666666666667
attr unit %
scalar AntennaDirectionalSelectivityExample.radioMedium "noise cache hit" 0
attr unit %
scalar AntennaDirectionalSelectivityExample.radioMedium "snir cache hit" 50
attr unit %
scalar AntennaDirectionalSelectivityExample.radioMedium "reception decision cache hit" 50
attr unit %
scalar AntennaDirectionalSelectivityExample.radioMedium "reception result cache hit" 0
attr unit %
par AntennaDirectionalSelectivityExample.hostA.radioIn[0].channel typename "\"ned.IdealChannel\""
par AntennaDirectionalSelectivityExample.hostA.mobility typename "\"inet.mobility.static.StationaryMobility\""
par AntennaDirectionalSelectivityExample.hostA.mobility subjectModule "\"^\""
par AntennaDirectionalSelectivityExample.hostA.mobility coordinateSystemModule "\"\""
par AntennaDirectionalSelectivityExample.hostA.mobility displayStringTextFormat "\"p: %p\\nv: %v\""
attr mutable ""
par AntennaDirectionalSelectivityExample.hostA.mobility updateDisplayString true
par AntennaDirectionalSelectivityExample.hostA.mobility constraintAreaMinX 0m
attr unit m
par AntennaDirectionalSelectivityExample.hostA.mobility constraintAreaMinY 0m
attr unit m
par AntennaDirectionalSelectivityExample.hostA.mobility constraintAreaMinZ 0m
attr unit m
par AntennaDirectionalSelectivityExample.hostA.mobility constraintAreaMaxX 1000m
attr unit m
par AntennaDirectionalSelectivityExample.hostA.mobility constraintAreaMaxY 1000m
attr unit m
par AntennaDirectionalSelectivityExample.hostA.mobility constraintAreaMaxZ 0m
attr unit m
par AntennaDirectionalSelectivityExample.hostA.mobility initialX 548.814m
attr unit m
par AntennaDirectionalSelectivityExample.hostA.mobility initialY 592.845m
attr unit m
par AntennaDirectionalSelectivityExample.hostA.mobility initialZ 0m
attr unit m
par AntennaDirectionalSelectivityExample.hostA.mobility initialLatitude "nan deg"
attr unit deg
par AntennaDirectionalSelectivityExample.hostA.mobility initialLongitude "nan deg"
attr unit deg
par AntennaDirectionalSelectivityExample.hostA.mobility initialAltitude 0m
attr unit m
par AntennaDirectionalSelectivityExample.hostA.mobility initialHeading 0deg
attr unit deg
par AntennaDirectionalSelectivityExample.hostA.mobility initialElevation 0deg
attr unit deg
par AntennaDirectionalSelectivityExample.hostA.mobility initialBank 0deg
attr unit deg
par AntennaDirectionalSelectivityExample.hostA.mobility initFromDisplayString true
par AntennaDirectionalSelectivityExample.hostA.mobility updateFromDisplayString true
par AntennaDirectionalSelectivityExample.hostA.interfaceTable typename "\"inet.networklayer.common.InterfaceTable\""
par AntennaDirectionalSelectivityExample.hostA.interfaceTable displayAddresses false
par AntennaDirectionalSelectivityExample.hostA.cb typename "\"inet.common.MessageDispatcher\""
par AntennaDirectionalSelectivityExample.hostA.cb displayStringTextFormat "\"processed %p pk (%l)\""
par AntennaDirectionalSelectivityExample.hostA.cb forwardServiceRegistration true
par AntennaDirectionalSelectivityExample.hostA.cb forwardProtocolRegistration true
par AntennaDirectionalSelectivityExample.hostA.bl typename "\"inet.common.MessageDispatcher\""
par AntennaDirectionalSelectivityExample.hostA.bl displayStringTextFormat "\"processed %p pk (%l)\""
par AntennaDirectionalSelectivityExample.hostA.bl forwardServiceRegistration true
par AntennaDirectionalSelectivityExample.hostA.bl forwardProtocolRegistration true
par AntennaDirectionalSelectivityExample.hostA.li typename "\"inet.common.MessageDispatcher\""
par AntennaDirectionalSelectivityExample.hostA.li displayStringTextFormat "\"processed %p pk (%l)\""
par AntennaDirectionalSelectivityExample.hostA.li forwardServiceRegistration true
par AntennaDirectionalSelectivityExample.hostA.li forwardProtocolRegistration true
par AntennaDirectionalSelectivityExample.hostA.lo[0].upperLayerIn.channel typename "\"ned.IdealChannel\""
par AntennaDirectionalSelectivityExample.hostA.lo[0].lo.upperLayerOut.channel typename "\"ned.IdealChannel\""
par AntennaDirectionalSelectivityExample.hostA.lo[0].lo typename "\"inet.linklayer.loopback.Loopback\""
par AntennaDirectionalSelectivityExample.hostA.lo[0].lo interfaceTableModule "\"AntennaDirectionalSelectivityExample.hostA.interfaceTable\""
par AntennaDirectionalSelectivityExample.hostA.lo[0].lo mtu 4470B
attr unit B
scalar AntennaDirectionalSelectivityExample.hostA.lo[0].lo rcvdPkFromHl:count 0
attr interpolationmode none
attr recordingmode count
attr source packetReceivedFromUpper
attr title "packets received from higher layer, count"
scalar AntennaDirectionalSelectivityExample.hostA.lo[0].lo rcvdPkFromHl:sum(packetBytes) 0
attr interpolationmode none
attr recordingmode sum(packetBytes)
attr source packetReceivedFromUpper
attr title "packets received from higher layer, sum(packetBytes)"
scalar AntennaDirectionalSelectivityExample.hostA.lo[0].lo passedUpPk:count 0
attr interpolationmode none
attr recordingmode count
attr source packetSentToUpper
attr title "packets passed to higher layer, count"
scalar AntennaDirectionalSelectivityExample.hostA.lo[0].lo passedUpPk:sum(packetBytes) 0
attr interpolationmode none
attr recordingmode sum(packetBytes)
attr source packetSentToUpper
attr title "packets passed to higher layer, sum(packetBytes)"
par AntennaDirectionalSelectivityExample.hostA.lo[0] typename "\"inet.linklayer.loopback.LoopbackInterface\""
par AntennaDirectionalSelectivityExample.hostA.lo[0] displayStringTextFormat "\"%a (%i)\\n%m\""
par AntennaDirectionalSelectivityExample.hostA.lo[0] recordPcap false
par AntennaDirectionalSelectivityExample.hostA.lo[0] numPcapRecorders 0
par AntennaDirectionalSelectivityExample.hostA.lo[0] interfaceTableModule "\"AntennaDirectionalSelectivityExample.hostA.interfaceTable\""
scalar AntennaDirectionalSelectivityExample.hostA.lo[0] packetDropInterfaceDown:count 0
attr interpolationmode none
attr recordingmode count
attr source packetDropReasonIsInterfaceDown(packetDropped)
attr title "packet drops: interface down, count"
scalar AntennaDirectionalSelectivityExample.hostA.lo[0] packetDropInterfaceDown:sum(packetBytes) 0
attr interpolationmode none
attr recordingmode sum(packetBytes)
attr source packetDropReasonIsInterfaceDown(packetDropped)
attr title "packet drops: interface down, sum(packetBytes)"
scalar AntennaDirectionalSelectivityExample.hostA.lo[0] packetDropNoCarrier:count 0
attr interpolationmode none
attr recordingmode count
attr source packetDropReasonIsNoCarrier(packetDropped)
attr title "packet drops: no carrier, count"
scalar AntennaDirectionalSelectivityExample.hostA.lo[0] packetDropNoCarrier:sum(packetBytes) 0
attr interpolationmode none
attr recordingmode sum(packetBytes)
attr source packetDropReasonIsNoCarrier(packetDropped)
attr title "packet drops: no carrier, sum(packetBytes)"
par AntennaDirectionalSelectivityExample.hostA.wlan[0].radioIn.channel typename "\"ned.IdealChannel\""
par AntennaDirectionalSelectivityExample.hostA.wlan[0].llc.upperLayerOut.channel typename "\"ned.IdealChannel\""
par AntennaDirectionalSelectivityExample.hostA.wlan[0].upperLayerIn.channel typename "\"ned.IdealChannel\""
par AntennaDirectionalSelectivityExample.hostA.wlan[0].mib typename "\"inet.linklayer.ieee80211.mib.Ieee80211Mib\""
par AntennaDirectionalSelectivityExample.hostA.wlan[0].llc typename "\"inet.linklayer.ieee80211.llc.Ieee80211LlcLpd\""
par AntennaDirectionalSelectivityExample.hostA.wlan[0].llc registerProtocol false
par AntennaDirectionalSelectivityExample.hostA.wlan[0].mgmt typename "\"inet.linklayer.ieee80211.mgmt.Ieee80211MgmtAdhoc\""
par AntennaDirectionalSelectivityExample.hostA.wlan[0].mgmt mibModule "\"AntennaDirectionalSelectivityExample.hostA.wlan[0].mib\""
par AntennaDirectionalSelectivityExample.hostA.wlan[0].mgmt macModule "\"AntennaDirectionalSelectivityExample.hostA.wlan[0].mac\""
par AntennaDirectionalSelectivityExample.hostA.wlan[0].mgmt interfaceTableModule "\"AntennaDirectionalSelectivityExample.hostA.interfaceTable\""
par AntennaDirectionalSelectivityExample.hostA.wlan[0].mac.dcf.channelAccess.pendingQueue typename "\"inet.linklayer.ieee80211.mac.queue.PendingQueue\""
par AntennaDirectionalSelectivityExample.hostA.wlan[0].mac.dcf.channelAccess.pendingQueue displayStringTextFormat "\"contains %p pk (%l) pushed %u\\npulled %o removed %r dropped %d\""
par AntennaDirectionalSelectivityExample.hostA.wlan[0].mac.dcf.channelAccess.pendingQueue packetCapacity 100
par AntennaDirectionalSelectivityExample.hostA.wlan[0].mac.dcf.channelAccess.pendingQueue dataCapacity -1b
attr unit b
par AntennaDirectionalSelectivityExample.hostA.wlan[0].mac.dcf.channelAccess.pendingQueue dropperClass "\"inet::queueing::PacketAtCollectionEndDropper\""
par AntennaDirectionalSelectivityExample.hostA.wlan[0].mac.dcf.channelAccess.pendingQueue comparatorClass "\"inet::ieee80211::MgmtOverDataComparator\""
par AntennaDirectionalSelectivityExample.hostA.wlan[0].mac.dcf.channelAccess.pendingQueue bufferModule "\"\""
scalar AntennaDirectionalSelectivityExample.hostA.wlan[0].mac.dcf.channelAccess.pendingQueue queueLength:last 1
attr autoWarmupFilter false
attr interpolationmode sample-hold
attr recordingmode last
attr source "warmup(atomic(constant0(packetPushEnded) + count(packetPushStarted) - count(packetPulled) - count(packetRemoved) - count(packetDropped)))"
attr title "queue length, last"
attr unit pk
scalar AntennaDirectionalSelectivityExample.hostA.wlan[0].mac.dcf.channelAccess.pendingQueue queueLength:max 1
attr autoWarmupFilter false
attr interpolationmode sample-hold
attr recordingmode max
attr source "warmup(atomic(constant0(packetPushEnded) + count(packetPushStarted) - count(packetPulled) - count(packetRemoved) - count(packetDropped)))"
attr title "queue length, max"
attr unit pk
scalar AntennaDirectionalSelectivityExample.hostA.wlan[0].mac.dcf.channelAccess.pendingQueue queueLength:timeavg 0.000384
attr autoWarmupFilter false
attr interpolationmode sample-hold
attr recordingmode timeavg
attr source "warmup(atomic(constant0(packetPushEnded) + count(packetPushStarted) - count(packetPulled) - count(packetRemoved) - count(packetDropped)))"
attr title "queue length, timeavg"
attr unit pk
scalar AntennaDirectionalSelectivityExample.hostA.wlan[0].mac.dcf.channelAccess.pendingQueue queueBitLength:last 960
attr autoWarmupFilter false
attr interpolationmode sample-hold
attr recordingmode last
attr source "warmup(atomic(constant0(packetPushEnded) + sum(packetLength(packetPushStarted)) - sum(packetLength(packetPulled)) - sum(packetLength(packetRemoved)) - sum(packetLength(packetDropped))))"
attr title "queue bit length, last"
attr unit b
scalar AntennaDirectionalSelectivityExample.hostA.wlan[0].mac.dcf.channelAccess.pendingQueue queueBitLength:max 960
attr autoWarmupFilter false
attr interpolationmode sample-hold
attr recordingmode max
attr source "warmup(atomic(constant0(packetPushEnded) + sum(packetLength(packetPushStarted)) - sum(packetLength(packetPulled)) - sum(packetLength(packetRemoved)) - sum(packetLength(packetDropped))))"
attr title "queue bit length, max"
attr unit b
scalar AntennaDirectionalSelectivityExample.hostA.wlan[0].mac.dcf.channelAccess.pendingQueue queueBitLength:timeavg 0.31936
attr autoWarmupFilter false
attr interpolationmode sample-hold
attr recordingmode timeavg
attr source "warmup(atomic(constant0(packetPushEnded) + sum(packetLength(packetPushStarted)) - sum(packetLength(packetPulled)) - sum(packetLength(packetRemoved)) - sum(packetLength(packetDropped))))"
attr title "queue bit length, timeavg"
attr unit b
statistic AntennaDirectionalSelectivityExample.hostA.wlan[0].mac.dcf.channelAccess.pendingQueue queueingTime:histogram
field count 2
field mean 0.000192
field stddev 0.00011596551211459
field min 0.00011
field max 0.000274
field sum 0.000384
field sqrsum 8.7176e-08
attr interpolationmode none
attr recordingmode histogram
attr source queueingTime(packetPulled)
attr title "queueing times"
attr unit s
bin	-inf	0
bin	6.5e-05	0
bin	7e-05	0
bin	7.5e-05	0
bin	8e-05	0
bin	8.5e-05	0
bin	9e-05	0
bin	9.5e-05	0
bin	0.0001	0
bin	0.000105	1
bin	0.00011	0
bin	0.000115	0
bin	0.00012	0
bin	0.000125	0
bin	0.00013	0
bin	0.000135	0
bin	0.00014	0
bin	0.000145	0
bin	0.00015	0
[...]
attr mutable ""
par AntennaDirectionalSelectivityExample.hostB.wlan[0] protocol "\"\""
par AntennaDirectionalSelectivityExample.hostB.wlan[0] bitrate -1bps
attr unit bps
scalar AntennaDirectionalSelectivityExample.hostB.wlan[0] packetDropInterfaceDown:count 0
attr interpolationmode none
attr recordingmode count
attr source packetDropReasonIsInterfaceDown(packetDropped)
attr title "packet drops: interface down, count"
scalar AntennaDirectionalSelectivityExample.hostB.wlan[0] packetDropInterfaceDown:sum(packetBytes) 0
attr interpolationmode none
attr recordingmode sum(packetBytes)
attr source packetDropReasonIsInterfaceDown(packetDropped)
attr title "packet drops: interface down, sum(packetBytes)"
scalar AntennaDirectionalSelectivityExample.hostB.wlan[0] packetDropNoCarrier:count 0
attr interpolationmode none
attr recordingmode count
attr source packetDropReasonIsNoCarrier(packetDropped)
attr title "packet drops: no carrier, count"
scalar AntennaDirectionalSelectivityExample.hostB.wlan[0] packetDropNoCarrier:sum(packetBytes) 0
attr interpolationmode none
attr recordingmode sum(packetBytes)
attr source packetDropReasonIsNoCarrier(packetDropped)
attr title "packet drops: no carrier, sum(packetBytes)"
par AntennaDirectionalSelectivityExample.hostB.ipv4.transportIn.channel typename "\"ned.IdealChannel\""
par AntennaDirectionalSelectivityExample.hostB.ipv4.up.out[0].channel typename "\"ned.IdealChannel\""
par AntennaDirectionalSelectivityExample.hostB.ipv4.lp.out[2].channel typename "\"ned.IdealChannel\""
par AntennaDirectionalSelectivityExample.hostB.ipv4.ifIn.channel typename "\"ned.IdealChannel\""
par AntennaDirectionalSelectivityExample.hostB.ipv4.configurator typename "\"inet.networklayer.configurator.ipv4.Ipv4NodeConfigurator\""
par AntennaDirectionalSelectivityExample.hostB.ipv4.configurator interfaceTableModule "\"AntennaDirectionalSelectivityExample.hostB.interfaceTable\""
par AntennaDirectionalSelectivityExample.hostB.ipv4.configurator routingTableModule "\"AntennaDirectionalSelectivityExample.hostB.ipv4.routingTable\""
par AntennaDirectionalSelectivityExample.hostB.ipv4.configurator networkConfiguratorModule "\"configurator\""
par AntennaDirectionalSelectivityExample.hostB.ipv4.configurator configureRoutingTable true
par AntennaDirectionalSelectivityExample.hostB.ipv4.routingTable typename "\"inet.networklayer.ipv4.Ipv4RoutingTable\""
par AntennaDirectionalSelectivityExample.hostB.ipv4.routingTable interfaceTableModule "\"AntennaDirectionalSelectivityExample.hostB.interfaceTable\""
par AntennaDirectionalSelectivityExample.hostB.ipv4.routingTable routerId "\"auto\""
par AntennaDirectionalSelectivityExample.hostB.ipv4.routingTable netmaskRoutes "\"*\""
par AntennaDirectionalSelectivityExample.hostB.ipv4.routingTable forwarding true
par AntennaDirectionalSelectivityExample.hostB.ipv4.routingTable multicastForwarding false
par AntennaDirectionalSelectivityExample.hostB.ipv4.routingTable useAdminDist false
par AntennaDirectionalSelectivityExample.hostB.ipv4.routingTable routingFile "\"\""
par AntennaDirectionalSelectivityExample.hostB.ipv4.natTable typename "\"inet.networklayer.ipv4.Ipv4NatTable\""
par AntennaDirectionalSelectivityExample.hostB.ipv4.natTable networkProtocolModule "\"^.ip\""
par AntennaDirectionalSelectivityExample.hostB.ipv4.natTable config "<config/> at content:1"
par AntennaDirectionalSelectivityExample.hostB.ipv4.up typename "\"inet.common.MessageDispatcher\""
par AntennaDirectionalSelectivityExample.hostB.ipv4.up displayStringTextFormat "\"processed %p pk (%l)\""
par AntennaDirectionalSelectivityExample.hostB.ipv4.up forwardServiceRegistration true
par AntennaDirectionalSelectivityExample.hostB.ipv4.up forwardProtocolRegistration true
par AntennaDirectionalSelectivityExample.hostB.ipv4.igmp typename "\"inet.networklayer.ipv4.Igmpv2\""
par AntennaDirectionalSelectivityExample.hostB.ipv4.igmp interfaceTableModule "\"AntennaDirectionalSelectivityExample.hostB.interfaceTable\""
par AntennaDirectionalSelectivityExample.hostB.ipv4.igmp routingTableModule "\"AntennaDirectionalSelectivityExample.hostB.ipv4.routingTable\""
par AntennaDirectionalSelectivityExample.hostB.ipv4.igmp crcMode "\"declared\""
attr enum declared,computed
par AntennaDirectionalSelectivityExample.hostB.ipv4.igmp enabled true
par AntennaDirectionalSelectivityExample.hostB.ipv4.igmp robustnessVariable 2
par AntennaDirectionalSelectivityExample.hostB.ipv4.igmp queryInterval 125s
attr unit s
par AntennaDirectionalSelectivityExample.hostB.ipv4.igmp queryResponseInterval 10s
attr unit s
par AntennaDirectionalSelectivityExample.hostB.ipv4.igmp groupMembershipInterval 260s
attr unit s
par AntennaDirectionalSelectivityExample.hostB.ipv4.igmp otherQuerierPresentInterval 255s
attr unit s
par AntennaDirectionalSelectivityExample.hostB.ipv4.igmp startupQueryInterval 31.25s
attr unit s
par AntennaDirectionalSelectivityExample.hostB.ipv4.igmp startupQueryCount 2
par AntennaDirectionalSelectivityExample.hostB.ipv4.igmp lastMemberQueryInterval 1s
attr unit s
par AntennaDirectionalSelectivityExample.hostB.ipv4.igmp lastMemberQueryCount 2
par AntennaDirectionalSelectivityExample.hostB.ipv4.igmp unsolicitedReportInterval 10s
attr unit s
par AntennaDirectionalSelectivityExample.hostB.ipv4.icmp typename "\"inet.networklayer.ipv4.Icmp\""
par AntennaDirectionalSelectivityExample.hostB.ipv4.icmp interfaceTableModule "\"AntennaDirectionalSelectivityExample.hostB.interfaceTable\""
par AntennaDirectionalSelectivityExample.hostB.ipv4.icmp routingTableModule "\"AntennaDirectionalSelectivityExample.hostB.ipv4.routingTable\""
par AntennaDirectionalSelectivityExample.hostB.ipv4.icmp crcMode "\"declared\""
attr enum declared,computed
attr mutable ""
par AntennaDirectionalSelectivityExample.hostB.ipv4.icmp quoteLength 8B
attr mutable ""
attr unit B
par AntennaDirectionalSelectivityExample.hostB.ipv4.mp typename "\"inet.common.MessageDispatcher\""
par AntennaDirectionalSelectivityExample.hostB.ipv4.mp displayStringTextFormat "\"processed %p pk (%l)\""
par AntennaDirectionalSelectivityExample.hostB.ipv4.mp forwardServiceRegistration true
par AntennaDirectionalSelectivityExample.hostB.ipv4.mp forwardProtocolRegistration true
par AntennaDirectionalSelectivityExample.hostB.ipv4.ip typename "\"inet.networklayer.ipv4.Ipv4\""
par AntennaDirectionalSelectivityExample.hostB.ipv4.ip interfaceTableModule "\"AntennaDirectionalSelectivityExample.hostB.interfaceTable\""
par AntennaDirectionalSelectivityExample.hostB.ipv4.ip routingTableModule "\"AntennaDirectionalSelectivityExample.hostB.ipv4.routingTable\""
par AntennaDirectionalSelectivityExample.hostB.ipv4.ip arpModule "\"AntennaDirectionalSelectivityExample.hostB.ipv4.arp\""
par AntennaDirectionalSelectivityExample.hostB.ipv4.ip icmpModule "\"AntennaDirectionalSelectivityExample.hostB.ipv4.icmp\""
par AntennaDirectionalSelectivityExample.hostB.ipv4.ip crcMode "\"declared\""
attr enum declared,computed
par AntennaDirectionalSelectivityExample.hostB.ipv4.ip timeToLive 32
par AntennaDirectionalSelectivityExample.hostB.ipv4.ip multicastTimeToLive 32
par AntennaDirectionalSelectivityExample.hostB.ipv4.ip fragmentTimeout 60s
attr unit s
par AntennaDirectionalSelectivityExample.hostB.ipv4.ip limitedBroadcast false
par AntennaDirectionalSelectivityExample.hostB.ipv4.ip directBroadcastInterfaces "\"\""
scalar AntennaDirectionalSelectivityExample.hostB.ipv4.ip packetDropAddressResolutionFailed:count 0
attr interpolationmode none
attr recordingmode count
attr source packetDropReasonIsAddressResolutionFailed(packetDropped)
attr title "packet drop: address resolution failed, count"
scalar AntennaDirectionalSelectivityExample.hostB.ipv4.ip packetDropAddressResolutionFailed:sum(packetBytes) 0
attr interpolationmode none
attr recordingmode sum(packetBytes)
attr source packetDropReasonIsAddressResolutionFailed(packetDropped)
attr title "packet drop: address resolution failed, sum(packetBytes)"
scalar AntennaDirectionalSelectivityExample.hostB.ipv4.ip packetDropHopLimitReached:count 0
attr interpolationmode none
attr recordingmode count
attr source packetDropReasonIsHopLimitReached(packetDropped)
attr title "packet drop: hop limit reached, count"
scalar AntennaDirectionalSelectivityExample.hostB.ipv4.ip packetDropHopLimitReached:sum(packetBytes) 0
attr interpolationmode none
attr recordingmode sum(packetBytes)
attr source packetDropReasonIsHopLimitReached(packetDropped)
attr title "packet drop: hop limit reached, sum(packetBytes)"
scalar AntennaDirectionalSelectivityExample.hostB.ipv4.ip packetDropForwardingDisabled:count 0
attr interpolationmode none
attr recordingmode count
attr source packetDropReasonIsForwardingDisabled(packetDropped)
attr title "packet drop: forwarding disabled, count"
scalar AntennaDirectionalSelectivityExample.hostB.ipv4.ip packetDropForwardingDisabled:sum(packetBytes) 0
attr interpolationmode none
attr recordingmode sum(packetBytes)
attr source packetDropReasonIsForwardingDisabled(packetDropped)
attr title "packet drop: forwarding disabled, sum(packetBytes)"
scalar AntennaDirectionalSelectivityExample.hostB.ipv4.ip packetDropNoInterfaceFound:count 0
attr interpolationmode none
attr recordingmode count
attr source packetDropReasonIsNoInterfaceFound(packetDropped)
attr title "packet drop: no interface found, count"
scalar AntennaDirectionalSelectivityExample.hostB.ipv4.ip packetDropNoInterfaceFound:sum(packetBytes) 0
attr interpolationmode none
attr recordingmode sum(packetBytes)
attr source packetDropReasonIsNoInterfaceFound(packetDropped)
attr title "packet drop: no interface found, sum(packetBytes)"
scalar AntennaDirectionalSelectivityExample.hostB.ipv4.ip packetDropNoRouteFound:count 0
attr interpolationmode none
attr recordingmode count
attr source packetDropReasonIsNoRouteFound(packetDropped)
attr title "packet drop: no route found, count"
scalar AntennaDirectionalSelectivityExample.hostB.ipv4.ip packetDropNoRouteFound:sum(packetBytes) 0
attr interpolationmode none
attr recordingmode sum(packetBytes)
attr source packetDropReasonIsNoRouteFound(packetDropped)
attr title "packet drop: no route found, sum(packetBytes)"
scalar AntennaDirectionalSelectivityExample.hostB.ipv4.ip packetDropUndefined:count 0
attr interpolationmode none
attr recordingmode count
attr source packetDropReasonIsUndefined(packetDropped)
attr title "packet drop: undefined, count"
scalar AntennaDirectionalSelectivityExample.hostB.ipv4.ip packetDropUndefined:sum(packetBytes) 0
attr interpolationmode none
attr recordingmode sum(packetBytes)
attr source packetDropReasonIsUndefined(packetDropped)
attr title "packet drop: undefined, sum(packetBytes)"
par AntennaDirectionalSelectivityExample.hostB.ipv4.arp typename "\"inet.networklayer.arp.ipv4.Arp\""
par AntennaDirectionalSelectivityExample.hostB.ipv4.arp interfaceTableModule "\"AntennaDirectionalSelectivityExample.hostB.interfaceTable\""
par AntennaDirectionalSelectivityExample.hostB.ipv4.arp routingTableModule "\"AntennaDirectionalSelectivityExample.hostB.ipv4.routingTable\""
par AntennaDirectionalSelectivityExample.hostB.ipv4.arp retryTimeout 1s
attr unit s
par AntennaDirectionalSelectivityExample.hostB.ipv4.arp retryCount 3
par AntennaDirectionalSelectivityExample.hostB.ipv4.arp cacheTimeout 120s
attr unit s
par AntennaDirectionalSelectivityExample.hostB.ipv4.arp proxyArpInterfaces "\"\""
scalar AntennaDirectionalSelectivityExample.hostB.ipv4.arp arpResolutionFailed:count 0
attr recordingmode count
attr title "ARP failed resolutions, count"
scalar AntennaDirectionalSelectivityExample.hostB.ipv4.arp arpResolutionCompleted:count 1
attr recordingmode count
attr title "ARP completed resolutions, count"
scalar AntennaDirectionalSelectivityExample.hostB.ipv4.arp arpResolutionInitiated:count 0
attr recordingmode count
attr title "ARP initiated resolutions, count"
scalar AntennaDirectionalSelectivityExample.hostB.ipv4.arp arpReplySent:count 1
attr recordingmode count
attr source arpReplySent
attr title "ARP replies sent, count"
scalar AntennaDirectionalSelectivityExample.hostB.ipv4.arp arpReplySent:sum(packetBytes) 28
attr recordingmode sum(packetBytes)
attr source arpReplySent
attr title "ARP replies sent, sum(packetBytes)"
scalar AntennaDirectionalSelectivityExample.hostB.ipv4.arp arpRequestSent:count 0
attr recordingmode count
attr source arpRequestSent
attr title "ARP request sent, count"
scalar AntennaDirectionalSelectivityExample.hostB.ipv4.arp arpRequestSent:sum(packetBytes) 0
attr recordingmode sum(packetBytes)
attr source arpRequestSent
attr title "ARP request sent, sum(packetBytes)"
par AntennaDirectionalSelectivityExample.hostB.ipv4.lp typename "\"inet.common.MessageDispatcher\""
par AntennaDirectionalSelectivityExample.hostB.ipv4.lp displayStringTextFormat "\"processed %p pk (%l)\""
par AntennaDirectionalSelectivityExample.hostB.ipv4.lp forwardServiceRegistration true
par AntennaDirectionalSelectivityExample.hostB.ipv4.lp forwardProtocolRegistration true
par AntennaDirectionalSelectivityExample.hostB.ipv4 typename "\"inet.networklayer.ipv4.Ipv4NetworkLayer\""
par AntennaDirectionalSelectivityExample.hostB.ipv4 forwarding true
par AntennaDirectionalSelectivityExample.hostB.ipv4 multicastForwarding false
par AntennaDirectionalSelectivityExample.hostB.ipv4 interfaceTableModule "\"AntennaDirectionalSelectivityExample.hostB.interfaceTable\""
par AntennaDirectionalSelectivityExample.hostB.ipv4 displayStringTextFormat "\"%i\""
par AntennaDirectionalSelectivityExample.hostB.nl typename "\"inet.common.MessageDispatcher\""
par AntennaDirectionalSelectivityExample.hostB.nl displayStringTextFormat "\"processed %p pk (%l)\""
par AntennaDirectionalSelectivityExample.hostB.nl forwardServiceRegistration true
par AntennaDirectionalSelectivityExample.hostB.nl forwardProtocolRegistration true
par AntennaDirectionalSelectivityExample.hostB.udp typename "\"inet.transportlayer.udp.Udp\""
par AntennaDirectionalSelectivityExample.hostB.udp interfaceTableModule "\"AntennaDirectionalSelectivityExample.hostB.interfaceTable\""
par AntennaDirectionalSelectivityExample.hostB.udp icmpModule "\"^.ipv4.icmp\""
par AntennaDirectionalSelectivityExample.hostB.udp icmpv6Module "\"^.ipv6.icmpv6\""
par AntennaDirectionalSelectivityExample.hostB.udp crcMode "\"declared\""
attr enum disabled,declared,computed
par AntennaDirectionalSelectivityExample.hostB.udp defaultMulticastLoop true
scalar AntennaDirectionalSelectivityExample.hostB.udp packetReceived:count 0
attr interpolationmode none
attr recordingmode count
attr source packetReceived
attr title "packets received, count"
scalar AntennaDirectionalSelectivityExample.hostB.udp packetReceived:sum(packetBytes) 0
attr interpolationmode none
attr recordingmode sum(packetBytes)
attr source packetReceived
attr title "packets received, sum(packetBytes)"
scalar AntennaDirectionalSelectivityExample.hostB.udp packetSent:count 0
attr interpolationmode none
attr recordingmode count
attr source packetSent
attr title "packets sent, count"
scalar AntennaDirectionalSelectivityExample.hostB.udp packetSent:sum(packetBytes) 0
attr interpolationmode none
attr recordingmode sum(packetBytes)
attr source packetSent
attr title "packets sent, sum(packetBytes)"
scalar AntennaDirectionalSelectivityExample.hostB.udp passedUpPk:count 0
attr interpolationmode none
attr recordingmode count
attr source packetSentToUpper
attr title "packets passed up, count"
scalar AntennaDirectionalSelectivityExample.hostB.udp droppedPkWrongPort:count 0
attr interpolationmode none
attr recordingmode count
attr source packetDropReasonIsNoPortFound(packetDropped)
attr title "packets dropped (wrong port), count"
scalar AntennaDirectionalSelectivityExample.hostB.udp droppedPkBadChecksum:count 0
attr interpolationmode none
attr recordingmode count
attr source packetDropReasonIsIncorrectlyReceived(packetDropped)
attr title "packets dropped (checksum error), count"
par AntennaDirectionalSelectivityExample.hostB.tcp typename "\"inet.transportlayer.tcp.Tcp\""
par AntennaDirectionalSelectivityExample.hostB.tcp crcMode "\"declared\""
attr enum declared,computed
par AntennaDirectionalSelectivityExample.hostB.tcp advertisedWindow 7504
par AntennaDirectionalSelectivityExample.hostB.tcp delayedAcksEnabled false
par AntennaDirectionalSelectivityExample.hostB.tcp nagleEnabled true
par AntennaDirectionalSelectivityExample.hostB.tcp limitedTransmitEnabled false
par AntennaDirectionalSelectivityExample.hostB.tcp increasedIWEnabled false
par AntennaDirectionalSelectivityExample.hostB.tcp sackSupport false
par AntennaDirectionalSelectivityExample.hostB.tcp windowScalingSupport false
par AntennaDirectionalSelectivityExample.hostB.tcp windowScalingFactor -1
par AntennaDirectionalSelectivityExample.hostB.tcp timestampSupport false
par AntennaDirectionalSelectivityExample.hostB.tcp mss 536
par AntennaDirectionalSelectivityExample.hostB.tcp msl 120s
attr unit s
par AntennaDirectionalSelectivityExample.hostB.tcp tcpAlgorithmClass "\"TcpReno\""
attr enum TcpVegas,TcpWestwood,TcpNewReno,TcpReno,TcpTahoe,TcpNoCongestionControl
par AntennaDirectionalSelectivityExample.hostB.tcp useDataNotification false
par AntennaDirectionalSelectivityExample.hostB.tcp dupthresh 3
par AntennaDirectionalSelectivityExample.hostB.tcp initialSsthresh 4294967295
par AntennaDirectionalSelectivityExample.hostB.tcp stopOperationExtraTime 0s
attr unit s
par AntennaDirectionalSelectivityExample.hostB.tcp stopOperationTimeout 2s
attr unit s
par AntennaDirectionalSelectivityExample.hostB.tcp ecnWillingness false
par AntennaDirectionalSelectivityExample.hostB.tcp dctcpGamma 0.0625
par AntennaDirectionalSelectivityExample.hostB.tn typename "\"inet.common.MessageDispatcher\""
par AntennaDirectionalSelectivityExample.hostB.tn displayStringTextFormat "\"processed %p pk (%l)\""
par AntennaDirectionalSelectivityExample.hostB.tn forwardServiceRegistration true
par AntennaDirectionalSelectivityExample.hostB.tn forwardProtocolRegistration true
par AntennaDirectionalSelectivityExample.hostB.at typename "\"inet.common.MessageDispatcher\""
par AntennaDirectionalSelectivityExample.hostB.at displayStringTextFormat "\"processed %p pk (%l)\""
par AntennaDirectionalSelectivityExample.hostB.at forwardServiceRegistration true
par AntennaDirectionalSelectivityExample.hostB.at forwardProtocolRegistration true
par AntennaDirectionalSelectivityExample.hostB typename "\"inet.node.inet.AdhocHost\""
par AntennaDirectionalSelectivityExample.hostB hasStatus false
par AntennaDirectionalSelectivityExample.hostB osgModel "\"\""
par AntennaDirectionalSelectivityExample.hostB osgModelColor "\"\""
par AntennaDirectionalSelectivityExample.hostB canvasImage "\"\""
par AntennaDirectionalSelectivityExample.hostB canvasImageColor "\"\""
par AntennaDirectionalSelectivityExample.hostB recordPcap false
par AntennaDirectionalSelectivityExample.hostB numPcapRecorders 0
par AntennaDirectionalSelectivityExample.hostB numLoInterfaces 1
par AntennaDirectionalSelectivityExample.hostB numWlanInterfaces 1
par AntennaDirectionalSelectivityExample.hostB numEthInterfaces 0
par AntennaDirectionalSelectivityExample.hostB numPppInterfaces 0
par AntennaDirectionalSelectivityExample.hostB numTunInterfaces 0
par AntennaDirectionalSelectivityExample.hostB numVirtInterfaces 0
par AntennaDirectionalSelectivityExample.hostB fcsMode "\"declared\""
attr enum declared,computed
par AntennaDirectionalSelectivityExample.hostB hasIpv4 true
par AntennaDirectionalSelectivityExample.hostB hasIpv6 false
par AntennaDirectionalSelectivityExample.hostB hasGn false
par AntennaDirectionalSelectivityExample.hostB forwarding true
par AntennaDirectionalSelectivityExample.hostB multicastForwarding false
par AntennaDirectionalSelectivityExample.hostB hasUdp true
par AntennaDirectionalSelectivityExample.hostB hasTcp true
par AntennaDirectionalSelectivityExample.hostB hasSctp false
par AntennaDirectionalSelectivityExample.hostB numApps 0
par AntennaDirectionalSelectivityExample typename "\"inet.examples.wireless.antenna.AntennaDirectionalSelectivityExample\""

