version 3
run ARPTest-0-20240202-12:15:07-12918
attr configname ARPTest
attr datetime 20240202-12:15:07
attr datetimef 20240202-121507
attr experiment ARPTest
attr inifile omnetpp.ini
attr iterationvars ""
attr iterationvarsd ""
attr iterationvarsf ""
attr measurement ""
attr network ARPTest
attr processid 12918
attr repetition 0
attr replication #0
attr resultdir results
attr runnumber 0
attr seedset 0
config image-path ../../inet/images
config *.configurator.addStaticRoutes false
config *.micro_router*.wlan[0].radio.energyConsumerType "\"StateBasedEnergyConsumer\""
config *.micro_router*.wlan[0].radio.energyConsumer.offPowerConsumption 0mW
config *.micro_router*.wlan[0].radio.energyConsumer.sleepPowerConsumption 1mW
config *.micro_router*.wlan[0].radio.energyConsumer.switchingPowerConsumption 1mW
config *.micro_router*.wlan[0].radio.energyConsumer.receiverIdlePowerConsumption 2mW
config *.micro_router*.wlan[0].radio.energyConsumer.receiverBusyPowerConsumption 5mW
config *.micro_router*.wlan[0].radio.energyConsumer.receiverReceivingPowerConsumption 10mW
config *.micro_router*.wlan[0].radio.energyConsumer.transmitterTransmittingPowerConsumption 100mW
config *.micro_router*.wlan[0].radio.energyStorageType "\"IdealEnergyStorage\""
config *micro_router*.wlan[0].typename AckingWirelessInterface
config *micro_router*.wlan[0].bitrate 2Mbps
config *.micro_router*.wlan[0].radioType "\"APSKScalarRadio\""
config *.micro_router*.wlan[0].radio.transmitter.communicationRange 250m
config *.micro_router*.wlan[0].radio.carrierFrequency 2GHz
config *.micro_router*.wlan[0].radio.bandwidth 2MHz
config *.micro_router*.wlan[0].radio.transmitter.power 1.4mW
config *.micro_router*.wlan[0].radio.transmitter.preambleDuration 10us
config *.micro_router*.wlan[0].radio.transmitter.headerBitLength 0b
config *.micro_router*.wlan[0].radio.receiver.sensitivity -85dBm
config *.micro_router*.wlan[0].radio.receiver.energyDetection -85dBm
config *.micro_router*.wlan[0].radio.receiver.snirThreshold 4dB
config ARPTest.micro_router0.routingTable.routingFile "\"whost0.mrt\""
config ARPTest.micro_router1.routingTable.routingFile "\"whost1.mrt\""
config network ARPTest
config total-stack 2MiB

par ARPTest.syncnode.out.channel typename "\"ned.DelayChannel\""
par ARPTest.syncnode.out.channel disabled false
attr mutable ""
par ARPTest.syncnode.out.channel delay 0s
attr mutable ""
attr unit s
par ARPTest.node0.gate$o.channel typename "\"test.simulations.ARPTest.ethline\""
par ARPTest.node0.gate$o.channel disabled false
attr mutable ""
par ARPTest.node0.gate$o.channel delay 0.001s
attr mutable ""
attr unit s
par ARPTest.node0.gate$o.channel datarate 1e+09bps
attr mutable ""
attr unit bps
par ARPTest.node0.gate$o.channel ber 0
attr mutable ""
par ARPTest.node0.gate$o.channel per 0
attr mutable ""
par ARPTest.switch1.ethg$o[0].channel typename "\"test.simulations.ARPTest.ethline\""
par ARPTest.switch1.ethg$o[0].channel disabled false
attr mutable ""
par ARPTest.switch1.ethg$o[0].channel delay 0.001s
attr mutable ""
attr unit s
par ARPTest.switch1.ethg$o[0].channel datarate 1e+09bps
attr mutable ""
attr unit bps
par ARPTest.switch1.ethg$o[0].channel ber 0
attr mutable ""
par ARPTest.switch1.ethg$o[0].channel per 0
attr mutable ""
par ARPTest.node1.gate$o.channel typename "\"test.simulations.ARPTest.ethline\""
par ARPTest.node1.gate$o.channel disabled false
attr mutable ""
par ARPTest.node1.gate$o.channel delay 0.001s
attr mutable ""
attr unit s
par ARPTest.node1.gate$o.channel datarate 1e+09bps
attr mutable ""
attr unit bps
par ARPTest.node1.gate$o.channel ber 0
attr mutable ""
par ARPTest.node1.gate$o.channel per 0
attr mutable ""
par ARPTest.switch1.ethg$o[1].channel typename "\"test.simulations.ARPTest.ethline\""
par ARPTest.switch1.ethg$o[1].channel disabled false
attr mutable ""
par ARPTest.switch1.ethg$o[1].channel delay 0.001s
attr mutable ""
attr unit s
par ARPTest.switch1.ethg$o[1].channel datarate 1e+09bps
attr mutable ""
attr unit bps
par ARPTest.switch1.ethg$o[1].channel ber 0
attr mutable ""
par ARPTest.switch1.ethg$o[1].channel per 0
attr mutable ""
par ARPTest.radioMedium.propagation typename "\"inet.physicallayer.wireless.common.propagation.ConstantSpeedPropagation\""
par ARPTest.radioMedium.propagation propagationSpeed 2.99792e+08mps
attr unit mps
par ARPTest.radioMedium.propagation ignoreMovementDuringTransmission true
par ARPTest.radioMedium.propagation ignoreMovementDuringPropagation true
par ARPTest.radioMedium.propagation ignoreMovementDuringReception true
scalar ARPTest.radioMedium.propagation "Arrival computation count" 0
par ARPTest.radioMedium.analogModel typename "\"inet.physicallayer.wireless.common.analogmodel.packetlevel.ScalarAnalogModel\""
par ARPTest.radioMedium.analogModel ignorePartialInterference false
par ARPTest.radioMedium.backgroundNoise typename "\"inet.physicallayer.wireless.common.backgroundnoise.IsotropicScalarBackgroundNoise\""
par ARPTest.radioMedium.backgroundNoise power -110dBm
attr unit dBm
par ARPTest.radioMedium.backgroundNoise bandwidth "nan Hz"
attr unit Hz
par ARPTest.radioMedium.pathLoss typename "\"inet.physicallayer.wireless.common.pathloss.FreeSpacePathLoss\""
par ARPTest.radioMedium.pathLoss alpha 2
par ARPTest.radioMedium.pathLoss systemLoss 0dB
attr unit dB
par ARPTest.radioMedium.mediumLimitCache typename "\"inet.physicallayer.wireless.common.medium.MediumLimitCache\""
par ARPTest.radioMedium.mediumLimitCache centerFrequency 2.4e+09Hz
attr unit Hz
par ARPTest.radioMedium.mediumLimitCache maxSpeed "nan mps"
attr unit mps
par ARPTest.radioMedium.mediumLimitCache maxTransmissionPower "nan W"
attr unit W
par ARPTest.radioMedium.mediumLimitCache minInterferencePower -110dBm
attr unit dBm
par ARPTest.radioMedium.mediumLimitCache minReceptionPower -85dBm
attr unit dBm
par ARPTest.radioMedium.mediumLimitCache maxAntennaGain 0dB
attr unit dB
par ARPTest.radioMedium.mediumLimitCache minInterferenceTime 1e-12s
attr unit s
par ARPTest.radioMedium.mediumLimitCache maxTransmissionDuration 0.01s
attr unit s
par ARPTest.radioMedium.mediumLimitCache maxCommunicationRange "nan m"
attr unit m
par ARPTest.radioMedium.mediumLimitCache maxInterferenceRange "nan m"
attr unit m
par ARPTest.radioMedium.communicationCache typename "\"inet.physicallayer.wireless.common.communicationcache.VectorCommunicationCache\""
par ARPTest.radioMedium typename "\"inet.physicallayer.wireless.ieee80211.packetlevel.Ieee80211ScalarRadioMedium\""
par ARPTest.radioMedium physicalEnvironmentModule "\"physicalEnvironment\""
par ARPTest.radioMedium signalAnalogRepresentation "\"scalar\""
attr enum unitDisk,scalar,dimensional
par ARPTest.radioMedium rangeFilter "\"\""
par ARPTest.radioMedium radioModeFilter false
par ARPTest.radioMedium listeningFilter false
par ARPTest.radioMedium macAddressFilter false
par ARPTest.radioMedium recordTransmissionLog false
par ARPTest.radioMedium recordReceptionLog false
scalar ARPTest.radioMedium "transmission count" 0
scalar ARPTest.radioMedium "signal send count" 0
scalar ARPTest.radioMedium "reception computation count" 0
scalar ARPTest.radioMedium "interference computation count" 0
scalar ARPTest.radioMedium "reception decision computation count" 0
scalar ARPTest.radioMedium "listening decision computation count" 0
scalar ARPTest.radioMedium "reception cache hit" -nan
attr unit %
scalar ARPTest.radioMedium "interference cache hit" -nan
attr unit %
scalar ARPTest.radioMedium "noise cache hit" -nan
attr unit %
scalar ARPTest.radioMedium "snir cache hit" -nan
attr unit %
scalar ARPTest.radioMedium "reception decision cache hit" -nan
attr unit %
scalar ARPTest.radioMedium "reception result cache hit" -nan
attr unit %
par ARPTest.switch1.eth[0].phys$o.channel typename "\"ned.IdealChannel\""
par ARPTest.switch1.ethg$i[0].channel typename "\"ned.IdealChannel\""
par ARPTest.switch1.eth[1].phys$o.channel typename "\"ned.IdealChannel\""
par ARPTest.switch1.ethg$i[1].channel typename "\"ned.IdealChannel\""
par ARPTest.switch1.macTable typename "\"inet.linklayer.ethernet.common.MacForwardingTable\""
par ARPTest.switch1.macTable agingTime 120s
attr unit s
par ARPTest.switch1.macTable forwardingTable []
attr mutable ""
par ARPTest.switch1.macTable forwardingTableFile "\"\""
par ARPTest.switch1.macTable interfaceTableModule "\"ARPTest.switch1.interfaceTable\""
par ARPTest.switch1.macTable displayStringTextFormat "\"addr: %a\\nvlan: %v\""
par ARPTest.switch1.interfaceTable typename "\"inet.networklayer.common.InterfaceTable\""
par ARPTest.switch1.interfaceTable displayAddresses false
par ARPTest.switch1.sc typename "\"inet.common.MessageDispatcher\""
par ARPTest.switch1.sc displayStringTextFormat "\"processed %p pk (%l)\""
par ARPTest.switch1.sc forwardServiceRegistration true
par ARPTest.switch1.sc forwardProtocolRegistration true
par ARPTest.switch1.llc typename "\"inet.linklayer.ieee8022.Ieee8022Llc\""
par ARPTest.switch1.llc registerProtocol true
par ARPTest.switch1.cb typename "\"inet.common.MessageDispatcher\""
par ARPTest.switch1.cb displayStringTextFormat "\"processed %p pk (%l)\""
par ARPTest.switch1.cb forwardServiceRegistration true
par ARPTest.switch1.cb forwardProtocolRegistration true
par ARPTest.switch1.bridging typename "\"inet.linklayer.ieee8021d.relay.Ieee8021dRelay\""
par ARPTest.switch1.bridging macTableModule "\"ARPTest.switch1.macTable\""
par ARPTest.switch1.bridging interfaceTableModule "\"ARPTest.switch1.interfaceTable\""
par ARPTest.switch1.bridging displayStringTextFormat "\"proc: %p\\ndisc: %d\""
scalar ARPTest.switch1.bridging "processed frames" 0
scalar ARPTest.switch1.bridging "discarded frames" 0
scalar ARPTest.switch1.bridging "number of received BPDUs from STP module" 0
scalar ARPTest.switch1.bridging "number of received frames from network (including BPDUs)" 4
scalar ARPTest.switch1.bridging "number of dropped frames (including BPDUs)" 0
scalar ARPTest.switch1.bridging "number of delivered BPDUs to the STP module" 0
scalar ARPTest.switch1.bridging "number of dispatched BPDU frames to the network" 0
scalar ARPTest.switch1.bridging "number of dispatched non-BDPU frames to the network" 0
scalar ARPTest.switch1.bridging packetDropped:count 0
attr interpolationmode none
attr recordingmode count
attr title "packets dropped, count"
scalar ARPTest.switch1.bridging packetDropped:sum(packetBytes) 0
attr interpolationmode none
attr recordingmode sum(packetBytes)
attr title "packets dropped, sum(packetBytes)"
par ARPTest.switch1.bl typename "\"inet.common.MessageDispatcher\""
par ARPTest.switch1.bl displayStringTextFormat "\"processed %p pk (%l)\""
par ARPTest.switch1.bl forwardServiceRegistration true
par ARPTest.switch1.bl forwardProtocolRegistration true
par ARPTest.switch1.ethernet typename "\"inet.linklayer.ethernet.basic.EthernetEncapsulation\""
par ARPTest.switch1.ethernet registerProtocol true
par ARPTest.switch1.ethernet interfaceTableModule "\"ARPTest.switch1.interfaceTable\""
par ARPTest.switch1.ethernet fcsMode "\"declared\""
attr enum declared,computed
par ARPTest.switch1.ethernet stopOperationExtraTime -1s
attr unit s
par ARPTest.switch1.ethernet stopOperationTimeout 2s
attr unit s
scalar ARPTest.switch1.ethernet pauseSent:count 0
attr recordingmode count
attr title "pause sent, count"
scalar ARPTest.switch1.ethernet pauseSent:sum 0
attr recordingmode sum
attr title "pause sent, sum"
scalar ARPTest.switch1.ethernet decapPk:count 4
attr interpolationmode none
attr recordingmode count
attr source decapPk
attr title "packets decapsulated, count"
scalar ARPTest.switch1.ethernet decapPk:sum(packetBytes) 96
attr interpolationmode none
attr recordingmode sum(packetBytes)
attr source decapPk
attr title "packets decapsulated, sum(packetBytes)"
scalar ARPTest.switch1.ethernet encapPk:count 4
attr interpolationmode none
attr recordingmode count
attr source encapPk
attr title "packets encapsulated, count"
scalar ARPTest.switch1.ethernet encapPk:sum(packetBytes) 96
attr interpolationmode none
attr recordingmode sum(packetBytes)
attr source encapPk
attr title "packets encapsulated, sum(packetBytes)"
par ARPTest.switch1.ieee8021q.qTagHeaderInserter.out.channel typename "\"ned.IdealChannel\""
par ARPTest.switch1.ieee8021q.lowerLayerIn.channel typename "\"ned.IdealChannel\""
par ARPTest.switch1.ieee8021q.upperLayerIn.channel typename "\"ned.IdealChannel\""
par ARPTest.switch1.ieee8021q.qTagHeaderChecker.out.channel typename "\"ned.IdealChannel\""
par ARPTest.switch1.ieee8021q.qTagHeaderInserter typename "\"inet.linklayer.ieee8021q.Ieee8021qTagEpdHeaderInserter\""
par ARPTest.switch1.ieee8021q.qTagHeaderInserter displayStringTextFormat "\"processed %p pk (%l)\""
par ARPTest.switch1.ieee8021q.qTagHeaderInserter vlanTagType "\"c\""
attr enum c,s
par ARPTest.switch1.ieee8021q.qTagHeaderInserter nextProtocol "\"ethernetmac\""
par ARPTest.switch1.ieee8021q.qTagHeaderInserter defaultVlanId -1
par ARPTest.switch1.ieee8021q.qTagHeaderInserter defaultPcp -1
par ARPTest.switch1.ieee8021q.qTagHeaderInserter defaultUserPriority -1
par ARPTest.switch1.ieee8021q.qTagHeaderInserter defaultDropEligible -1
scalar ARPTest.switch1.ieee8021q.qTagHeaderInserter outgoingPackets:count 0
attr recordingmode count
attr source "merge(packetPushedOut, packetPulledOut)"
attr title "outgoing packets, count"
attr unit pk
scalar ARPTest.switch1.ieee8021q.qTagHeaderInserter outgoingPacketLengths:sum 0
attr interpolationmode none
attr recordingmode sum
attr source "packetLength(merge(packetPushedOut, packetPulledOut))"
attr title "outgoing packet lengths, sum"
attr unit b
statistic ARPTest.switch1.ieee8021q.qTagHeaderInserter outgoingPacketLengths:histogram
field count 0
field mean -nan
field stddev nan
field min nan
field max nan
field sum 0
field sqrsum 0
attr interpolationmode none
attr recordingmode histogram
attr source "packetLength(merge(packetPushedOut, packetPulledOut))"
attr title "outgoing packet lengths"
attr unit b
bin	-inf	0
bin	0	0
bin	1	0
scalar ARPTest.switch1.ieee8021q.qTagHeaderInserter flowOutgoingPacketLengths:sum 0
attr interpolationmode none
attr recordingmode sum
attr source "packetLength(demuxFlow(merge(packetPushedOut, packetPulledOut)))"
attr title "flow specific outgoing packet lengths, sum"
attr unit b
statistic ARPTest.switch1.ieee8021q.qTagHeaderInserter flowOutgoingPacketLengths:histogram
field count 0
field mean -nan
field stddev nan
field min nan
field max nan
field sum 0
field sqrsum 0
attr interpolationmode none
attr recordingmode histogram
attr source "packetLength(demuxFlow(merge(packetPushedOut, packetPulledOut)))"
attr title "flow specific outgoing packet lengths"
attr unit b
bin	-inf	0
bin	0	0
bin	1	0
scalar ARPTest.switch1.ieee8021q.qTagHeaderInserter incomingPackets:count 0
attr recordingmode count
attr source "merge(packetPushedIn, packetPulledIn)"
attr title "incoming packets, count"
attr unit pk
scalar ARPTest.switch1.ieee8021q.qTagHeaderInserter incomingPacketLengths:sum 0
attr interpolationmode none
attr recordingmode sum
attr source "packetLength(merge(packetPushedIn, packetPulledIn))"
attr title "incoming packet lengths, sum"
attr unit b
statistic ARPTest.switch1.ieee8021q.qTagHeaderInserter incomingPacketLengths:histogram
field count 0
field mean -nan
field stddev nan
field min nan
field max nan
field sum 0
field sqrsum 0
attr interpolationmode none
attr recordingmode histogram
attr source "packetLength(merge(packetPushedIn, packetPulledIn))"
attr title "incoming packet lengths"
attr unit b
bin	-inf	0
bin	0	0
bin	1	0
scalar ARPTest.switch1.ieee8021q.qTagHeaderInserter flowIncomingPacketLengths:sum 0
attr interpolationmode none
attr recordingmode sum
attr source "packetLength(demuxFlow(merge(packetPushedIn, packetPulledIn)))"
attr title "flow specific incoming packet lengths, sum"
attr unit b
statistic ARPTest.switch1.ieee8021q.qTagHeaderInserter flowIncomingPacketLengths:histogram
field count 0
field mean -nan
field stddev nan
field min nan
field max nan
field sum 0
field sqrsum 0
attr interpolationmode none
attr recordingmode histogram
attr source "packetLength(demuxFlow(merge(packetPushedIn, packetPulledIn)))"
attr title "flow specific incoming packet lengths"
attr unit b
bin	-inf	0
bin	0	0
bin	1	0
par ARPTest.switch1.ieee8021q.qTagHeaderChecker typename "\"inet.linklayer.ieee8021q.Ieee8021qTagEpdHeaderChecker\""
par ARPTest.switch1.ieee8021q.qTagHeaderChecker displayStringTextFormat "\"dropped %d/%p pk (%k/%l)\""
par ARPTest.switch1.ieee8021q.qTagHeaderChecker backpressure false
par ARPTest.switch1.ieee8021q.qTagHeaderChecker vlanTagType "\"c\""
attr enum c,s
par ARPTest.switch1.ieee8021q.qTagHeaderChecker vlanIdFilter []
attr mutable ""
scalar ARPTest.switch1.ieee8021q.qTagHeaderChecker outgoingPackets:count 0
attr recordingmode count
attr source "merge(packetPushedOut, packetPulledOut)"
attr title "outgoing packets, count"
attr unit pk
scalar ARPTest.switch1.ieee8021q.qTagHeaderChecker outgoingPacketLengths:sum 0
attr interpolationmode none
attr recordingmode sum
attr source "packetLength(merge(packetPushedOut, packetPulledOut))"
attr title "outgoing packet lengths, sum"
attr unit b
statistic ARPTest.switch1.ieee8021q.qTagHeaderChecker outgoingPacketLengths:histogram
field count 0
field mean -nan
field stddev nan
field min nan
field max nan
field sum 0
field sqrsum 0
attr interpolationmode none
attr recordingmode histogram
attr source "packetLength(merge(packetPushedOut, packetPulledOut))"
attr title "outgoing packet lengths"
attr unit b
bin	-inf	0
bin	0	0
bin	1	0
scalar ARPTest.switch1.ieee8021q.qTagHeaderChecker flowOutgoingPacketLengths:sum 0
attr interpolationmode none
attr recordingmode sum
attr source "packetLength(demuxFlow(merge(packetPushedOut, packetPulledOut)))"
attr title "flow specific outgoing packet lengths, sum"
attr unit b
statistic ARPTest.switch1.ieee8021q.qTagHeaderChecker flowOutgoingPacketLengths:histogram
field count 0
field mean -nan
field stddev nan
field min nan
field max nan
field sum 0
field sqrsum 0
attr interpolationmode none
attr recordingmode histogram
attr source "packetLength(demuxFlow(merge(packetPushedOut, packetPulledOut)))"
attr title "flow specific outgoing packet lengths"
attr unit b
bin	-inf	0
bin	0	0
bin	1	0
scalar ARPTest.switch1.ieee8021q.qTagHeaderChecker incomingPackets:count 0
attr recordingmode count
attr source "merge(packetPushedIn, packetPulledIn)"
attr title "incoming packets, count"
attr unit pk
scalar ARPTest.switch1.ieee8021q.qTagHeaderChecker incomingPacketLengths:sum 0
attr interpolationmode none
attr recordingmode sum
attr source "packetLength(merge(packetPushedIn, packetPulledIn))"
attr title "incoming packet lengths, sum"
attr unit b
statistic ARPTest.switch1.ieee8021q.qTagHeaderChecker incomingPacketLengths:histogram
field count 0
field mean -nan
field stddev nan
field min nan
field max nan
field sum 0
field sqrsum 0
attr interpolationmode none
attr recordingmode histogram
attr source "packetLength(merge(packetPushedIn, packetPulledIn))"
attr title "incoming packet lengths"
attr unit b
bin	-inf	0
bin	0	0
bin	1	0
scalar ARPTest.switch1.ieee8021q.qTagHeaderChecker flowIncomingPacketLengths:sum 0
attr interpolationmode none
attr recordingmode sum
attr source "packetLength(demuxFlow(merge(packetPushedIn, packetPulledIn)))"
attr title "flow specific incoming packet lengths, sum"
attr unit b
statistic ARPTest.switch1.ieee8021q.qTagHeaderChecker flowIncomingPacketLengths:histogram
field count 0
field mean -nan
field stddev nan
field min nan
field max nan
field sum 0
field sqrsum 0
attr interpolationmode none
attr recordingmode histogram
attr source "packetLength(demuxFlow(merge(packetPushedIn, packetPulledIn)))"
attr title "flow specific incoming packet lengths"
attr unit b
bin	-inf	0
bin	0	0
bin	1	0
scalar ARPTest.switch1.ieee8021q.qTagHeaderChecker droppedPackets:count 0
attr recordingmode count
attr source packetDropped
attr title "dropped packets, count"
attr unit pk
scalar ARPTest.switch1.ieee8021q.qTagHeaderChecker droppedPacketLengths:sum 0
attr interpolationmode none
attr recordingmode sum
attr source packetLength(packetDropped)
attr title "dropped packet lengths, sum"
attr unit b
statistic ARPTest.switch1.ieee8021q.qTagHeaderChecker droppedPacketLengths:histogram
field count 0
field mean -nan
field stddev nan
field min nan
field max nan
field sum 0
field sqrsum 0
attr interpolationmode none
attr recordingmode histogram
attr source packetLength(packetDropped)
attr title "dropped packet lengths"
attr unit b
bin	-inf	0
bin	0	0
bin	1	0
scalar ARPTest.switch1.ieee8021q.qTagHeaderChecker flowDroppedPacketLengths:sum 0
attr interpolationmode none
attr recordingmode sum
attr source packetLength(demuxFlow(packetDropped))
attr title "flow specific dropped packet lengths, sum"
attr unit b
statistic ARPTest.switch1.ieee8021q.qTagHeaderChecker flowDroppedPacketLengths:histogram
field count 0
field mean -nan
field stddev nan
field min nan
field max nan
field sum 0
field sqrsum 0
attr interpolationmode none
attr recordingmode histogram
attr source packetLength(demuxFlow(packetDropped))
attr title "flow specific dropped packet lengths"
attr unit b
bin	-inf	0
bin	0	0
bin	1	0
par ARPTest.switch1.ieee8021q typename "\"inet.linklayer.ieee8021q.Ieee8021qProtocol\""
par ARPTest.switch1.ieee8021q vlanTagType "\"c\""
par ARPTest.switch1.ieee8021q hasSocketSupport false
par ARPTest.switch1.ieee8021r.upperLayerIn.channel typename "\"ned.IdealChannel\""
par ARPTest.switch1.ieee8021r.rTagHeaderInserter.out.channel typename "\"ned.IdealChannel\""
par ARPTest.switch1.ieee8021r.lowerLayerIn.channel typename "\"ned.IdealChannel\""
par ARPTest.switch1.ieee8021r.rTagHeaderChecker.out.channel typename "\"ned.IdealChannel\""
par ARPTest.switch1.ieee8021r.rTagHeaderInserter typename "\"inet.linklayer.ieee8021r.Ieee8021rTagEpdHeaderInserter\""
par ARPTest.switch1.ieee8021r.rTagHeaderInserter displayStringTextFormat "\"processed %p pk (%l)\""
par ARPTest.switch1.ieee8021r.rTagHeaderInserter nextProtocol "\"ieee8021qctag\""
scalar ARPTest.switch1.ieee8021r.rTagHeaderInserter outgoingPackets:count 0
attr recordingmode count
attr source "merge(packetPushedOut, packetPulledOut)"
attr title "outgoing packets, count"
attr unit pk
scalar ARPTest.switch1.ieee8021r.rTagHeaderInserter outgoingPacketLengths:sum 0
attr interpolationmode none
attr recordingmode sum
attr source "packetLength(merge(packetPushedOut, packetPulledOut))"
attr title "outgoing packet lengths, sum"
attr unit b
statistic ARPTest.switch1.ieee8021r.rTagHeaderInserter outgoingPacketLengths:histogram
field count 0
field mean -nan
field stddev nan
field min nan
field max nan
field sum 0
field sqrsum 0
attr interpolationmode none
attr recordingmode histogram
attr source "packetLength(merge(packetPushedOut, packetPulledOut))"
attr title "outgoing packet lengths"
attr unit b
bin	-inf	0
bin	0	0
bin	1	0
scalar ARPTest.switch1.ieee8021r.rTagHeaderInserter flowOutgoingPacketLengths:sum 0
attr interpolationmode none
attr recordingmode sum
attr source "packetLength(demuxFlow(merge(packetPushedOut, packetPulledOut)))"
attr title "flow specific outgoing packet lengths, sum"
attr unit b
statistic ARPTest.switch1.ieee8021r.rTagHeaderInserter flowOutgoingPacketLengths:histogram
field count 0
field mean -nan
field stddev nan
field min nan
field max nan
field sum 0
field sqrsum 0
attr interpolationmode none
attr recordingmode histogram
attr source "packetLength(demuxFlow(merge(packetPushedOut, packetPulledOut)))"
attr title "flow specific outgoing packet lengths"
attr unit b
bin	-inf	0
bin	0	0
bin	1	0
scalar ARPTest.switch1.ieee8021r.rTagHeaderInserter incomingPackets:count 0
attr recordingmode count
attr source "merge(packetPushedIn, packetPulledIn)"
attr title "incoming packets, count"
attr unit pk
scalar ARPTest.switch1.ieee8021r.rTagHeaderInserter incomingPacketLengths:sum 0
attr interpolationmode none
attr recordingmode sum
attr source "packetLength(merge(packetPushedIn, packetPulledIn))"
attr title "incoming packet lengths, sum"
attr unit b
statistic ARPTest.switch1.ieee8021r.rTagHeaderInserter incomingPacketLengths:histogram
field count 0
field mean -nan
field stddev nan
field min nan
field max nan
field sum 0
field sqrsum 0
attr interpolationmode none
attr recordingmode histogram
attr source "packetLength(merge(packetPushedIn, packetPulledIn))"
attr title "incoming packet lengths"
attr unit b
bin	-inf	0
bin	0	0
bin	1	0
scalar ARPTest.switch1.ieee8021r.rTagHeaderInserter flowIncomingPacketLengths:sum 0
attr interpolationmode none
attr recordingmode sum
attr source "packetLength(demuxFlow(merge(packetPushedIn, packetPulledIn)))"
attr title "flow specific incoming packet lengths, sum"
attr unit b
statistic ARPTest.switch1.ieee8021r.rTagHeaderInserter flowIncomingPacketLengths:histogram
field count 0
field mean -nan
field stddev nan
field min nan
field max nan
field sum 0
field sqrsum 0
attr interpolationmode none
attr recordingmode histogram
attr source "packetLength(demuxFlow(merge(packetPushedIn, packetPulledIn)))"
attr title "flow specific incoming packet lengths"
attr unit b
bin	-inf	0
bin	0	0
bin	1	0
par ARPTest.switch1.ieee8021r.rTagHeaderChecker typename "\"inet.linklayer.ieee8021r.Ieee8021rTagEpdHeaderChecker\""
par ARPTest.switch1.ieee8021r.rTagHeaderChecker displayStringTextFormat "\"dropped %d/%p pk (%k/%l)\""
par ARPTest.switch1.ieee8021r.rTagHeaderChecker backpressure false
scalar ARPTest.switch1.ieee8021r.rTagHeaderChecker outgoingPackets:count 0
attr recordingmode count
attr source "merge(packetPushedOut, packetPulledOut)"
attr title "outgoing packets, count"
attr unit pk
scalar ARPTest.switch1.ieee8021r.rTagHeaderChecker outgoingPacketLengths:sum 0
attr interpolationmode none
attr recordingmode sum
attr source "packetLength(merge(packetPushedOut, packetPulledOut))"
attr title "outgoing packet lengths, sum"
attr unit b
statistic ARPTest.switch1.ieee8021r.rTagHeaderChecker outgoingPacketLengths:histogram
field count 0
field mean -nan
field stddev nan
field min nan
field max nan
field sum 0
field sqrsum 0
attr interpolationmode none
attr recordingmode histogram
attr source "packetLength(merge(packetPushedOut, packetPulledOut))"
attr title "outgoing packet lengths"
attr unit b
bin	-inf	0
bin	0	0
bin	1	0
scalar ARPTest.switch1.ieee8021r.rTagHeaderChecker flowOutgoingPacketLengths:sum 0
attr interpolationmode none
attr recordingmode sum
attr source "packetLength(demuxFlow(merge(packetPushedOut, packetPulledOut)))"
attr title "flow specific outgoing packet lengths, sum"
attr unit b
statistic ARPTest.switch1.ieee8021r.rTagHeaderChecker flowOutgoingPacketLengths:histogram
field count 0
field mean -nan
field stddev nan
field min nan
field max nan
field sum 0
field sqrsum 0
attr interpolationmode none
attr recordingmode histogram
attr source "packetLength(demuxFlow(merge(packetPushedOut, packetPulledOut)))"
attr title "flow specific outgoing packet lengths"
attr unit b
bin	-inf	0
bin	0	0
bin	1	0
scalar ARPTest.switch1.ieee8021r.rTagHeaderChecker incomingPackets:count 0
attr recordingmode count
attr source "merge(packetPushedIn, packetPulledIn)"
attr title "incoming packets, count"
attr unit pk
scalar ARPTest.switch1.ieee8021r.rTagHeaderChecker incomingPacketLengths:sum 0
attr interpolationmode none
attr recordingmode sum
attr source "packetLength(merge(packetPushedIn, packetPulledIn))"
attr title "incoming packet lengths, sum"
attr unit b
statistic ARPTest.switch1.ieee8021r.rTagHeaderChecker incomingPacketLengths:histogram
field count 0
field mean -nan
field stddev nan
field min nan
field max nan
field sum 0
field sqrsum 0
attr interpolationmode none
attr recordingmode histogram
attr source "packetLength(merge(packetPushedIn, packetPulledIn))"
attr title "incoming packet lengths"
attr unit b
bin	-inf	0
bin	0	0
bin	1	0
scalar ARPTest.switch1.ieee8021r.rTagHeaderChecker flowIncomingPacketLengths:sum 0
attr interpolationmode none
attr recordingmode sum
attr source "packetLength(demuxFlow(merge(packetPushedIn, packetPulledIn)))"
attr title "flow specific incoming packet lengths, sum"
attr unit b
statistic ARPTest.switch1.ieee8021r.rTagHeaderChecker flowIncomingPacketLengths:histogram
field count 0
field mean -nan
field stddev nan
field min nan
field max nan
field sum 0
field sqrsum 0
attr interpolationmode none
attr recordingmode histogram
attr source "packetLength(demuxFlow(merge(packetPushedIn, packetPulledIn)))"
attr title "flow specific incoming packet lengths"
attr unit b
bin	-inf	0
bin	0	0
bin	1	0
scalar ARPTest.switch1.ieee8021r.rTagHeaderChecker droppedPackets:count 0
attr recordingmode count
attr source packetDropped
attr title "dropped packets, count"
attr unit pk
scalar ARPTest.switch1.ieee8021r.rTagHeaderChecker droppedPacketLengths:sum 0
attr interpolationmode none
attr recordingmode sum
attr source packetLength(packetDropped)
attr title "dropped packet lengths, sum"
attr unit b
statistic ARPTest.switch1.ieee8021r.rTagHeaderChecker droppedPacketLengths:histogram
field count 0
field mean -nan
field stddev nan
field min nan
field max nan
field sum 0
field sqrsum 0
attr interpolationmode none
attr recordingmode histogram
attr source packetLength(packetDropped)
attr title "dropped packet lengths"
attr unit b
bin	-inf	0
bin	0	0
bin	1	0
scalar ARPTest.switch1.ieee8021r.rTagHeaderChecker flowDroppedPacketLengths:sum 0
attr interpolationmode none
attr recordingmode sum
attr source packetLength(demuxFlow(packetDropped))
attr title "flow specific dropped packet lengths, sum"
attr unit b
statistic ARPTest.switch1.ieee8021r.rTagHeaderChecker flowDroppedPacketLengths:histogram
field count 0
field mean -nan
field stddev nan
field min nan
field max nan
field sum 0
field sqrsum 0
attr interpolationmode none
attr recordingmode histogram
attr source packetLength(demuxFlow(packetDropped))
attr title "flow specific dropped packet lengths"
attr unit b
bin	-inf	0
bin	0	0
bin	1	0
par ARPTest.switch1.ieee8021r typename "\"inet.linklayer.ieee8021r.Ieee8021rProtocol\""
par ARPTest.switch1.li typename "\"inet.common.MessageDispatcher\""
par ARPTest.switch1.li displayStringTextFormat "\"processed %p pk (%l)\""
par ARPTest.switch1.li forwardServiceRegistration true
par ARPTest.switch1.li forwardProtocolRegistration true
par ARPTest.switch1.eth[0].mac.phys$o.channel typename "\"ned.IdealChannel\""
par ARPTest.switch1.eth[0].phys$i.channel typename "\"ned.IdealChannel\""
par ARPTest.switch1.eth[0].upperLayerIn.channel typename "\"ned.IdealChannel\""
par ARPTest.switch1.eth[0].mac.upperLayerOut.channel typename "\"ned.IdealChannel\""
par ARPTest.switch1.eth[0].queue typename "\"inet.linklayer.ethernet.common.EthernetQueue\""
par ARPTest.switch1.eth[0].queue displayStringTextFormat "\"contains %p pk (%l) pushed %u\\npulled %o removed %r dropped %d\""
par ARPTest.switch1.eth[0].queue packetCapacity 1000
par ARPTest.switch1.eth[0].queue dataCapacity -1b
attr unit b
par ARPTest.switch1.eth[0].queue dropperClass "\"inet::queueing::PacketAtCollectionEndDropper\""
par ARPTest.switch1.eth[0].queue comparatorClass "\"inet::EthernetFrameTypeComparator\""
par ARPTest.switch1.eth[0].queue bufferModule "\"\""
scalar ARPTest.switch1.eth[0].queue queueLength:last 0
attr autoWarmupFilter false
attr interpolationmode sample-hold
attr recordingmode last
attr source "warmup(atomic(constant0(packetPushEnded) + count(packetPushStarted) - count(packetPulled) - count(packetRemoved) - count(packetDropped)))"
attr title "queue length, last"
attr unit pk
scalar ARPTest.switch1.eth[0].queue queueLength:max 0
attr autoWarmupFilter false
attr interpolationmode sample-hold
attr recordingmode max
attr source "warmup(atomic(constant0(packetPushEnded) + count(packetPushStarted) - count(packetPulled) - count(packetRemoved) - count(packetDropped)))"
attr title "queue length, max"
attr unit pk
scalar ARPTest.switch1.eth[0].queue queueLength:timeavg 0
attr autoWarmupFilter false
attr interpolationmode sample-hold
attr recordingmode timeavg
attr source "warmup(atomic(constant0(packetPushEnded) + count(packetPushStarted) - count(packetPulled) - count(packetRemoved) - count(packetDropped)))"
attr title "queue length, timeavg"
attr unit pk
scalar ARPTest.switch1.eth[0].queue queueBitLength:last 0
attr autoWarmupFilter false
attr interpolationmode sample-hold
attr recordingmode last
attr source "warmup(atomic(constant0(packetPushEnded) + sum(packetLength(packetPushStarted)) - sum(packetLength(packetPulled)) - sum(packetLength(packetRemoved)) - sum(packetLength(packetDropped))))"
attr title "queue bit length, last"
attr unit b
scalar ARPTest.switch1.eth[0].queue queueBitLength:max 0
attr autoWarmupFilter false
attr interpolationmode sample-hold
attr recordingmode max
attr source "warmup(atomic(constant0(packetPushEnded) + sum(packetLength(packetPushStarted)) - sum(packetLength(packetPulled)) - sum(packetLength(packetRemoved)) - sum(packetLength(packetDropped))))"
attr title "queue bit length, max"
attr unit b
scalar ARPTest.switch1.eth[0].queue queueBitLength:timeavg 0
attr autoWarmupFilter false
attr interpolationmode sample-hold
attr recordingmode timeavg
attr source "warmup(atomic(constant0(packetPushEnded) + sum(packetLength(packetPushStarted)) - sum(packetLength(packetPulled)) - sum(packetLength(packetRemoved)) - sum(packetLength(packetDropped))))"
attr title "queue bit length, timeavg"
attr unit b
statistic ARPTest.switch1.eth[0].queue queueingTime:histogram
field count 2
field mean 0
field stddev 0
field min 0
field max 0
field sum 0
field sqrsum 0
attr interpolationmode none
attr recordingmode histogram
attr source queueingTime(packetPulled)
attr title "queueing times"
attr unit s
bin	-inf	0
bin	-0.5	0
bin	-0.48	0
bin	-0.46	0
bin	-0.44	0
bin	-0.42	0
bin	-0.4	0
bin	-0.38	0
bin	-0.36	0
bin	-0.34	0
bin	-0.32	0
bin	-0.3	0
bin	-0.28	0
bin	-0.26	0
bin	-0.24	0
bin	-0.22	0
bin	-0.2	0
bin	-0.18	0
bin	-0.16	0
bin	-0.14	0
bin	-0.12	0
bin	-0.1	0
bin	-0.08	0
bin	-0.06	0
bin	-0.04	0
bin	-0.02	0
bin	0	2
bin	0.02	0
bin	0.04	0
bin	0.06	0
bin	0.08	0
bin	0.1	0
bin	0.12	0
bin	0.14	0
bin	0.16	0
bin	0.18	0
bin	0.2	0
bin	0.22	0
bin	0.24	0
bin	0.26	0
bin	0.28	0
bin	0.3	0
bin	0.32	0
bin	0.34	0
bin	0.36	0
bin	0.38	0
bin	0.4	0
bin	0.42	0
bin	0.44	0
bin	0.46	0
bin	0.48	0
bin	0.5	0
scalar ARPTest.switch1.eth[0].queue outgoingPackets:count 2
attr recordingmode count
attr source packetPulled
attr title "outgoing packets, count"
attr unit pk
scalar ARPTest.switch1.eth[0].queue outgoingPacketLengths:sum 670
attr interpolationmode none
attr recordingmode sum
attr source packetLength(packetPulled)
attr title "outgoing packet lengths, sum"
attr unit b
statistic ARPTest.switch1.eth[0].queue outgoingPacketLengths:histogram
field count 2
field mean 335
field stddev 45.254833995939
field min 303
field max 367
field sum 670
field sqrsum 226498
attr interpolationmode none
attr recordingmode histogram
attr source packetLength(packetPulled)
attr title "outgoing packet lengths"
attr unit b
bin	-inf	0
bin	286	0
bin	288	0
bin	290	0
bin	292	0
bin	294	0
bin	296	0
bin	298	0
bin	300	0
bin	302	1
bin	304	0
bin	306	0
bin	308	0
bin	310	0
bin	312	0
bin	314	0
bin	316	0
bin	318	0
bin	320	0
bin	322	0
bin	324	0
bin	326	0
bin	328	0
bin	330	0
bin	332	0
bin	334	0
bin	336	0
bin	338	0
bin	340	0
bin	342	0
bin	344	0
bin	346	0
bin	348	0
bin	350	0
bin	352	0
bin	354	0
bin	356	0
bin	358	0
bin	360	0
bin	362	0
bin	364	0
bin	366	1
bin	368	0
bin	370	0
bin	372	0
bin	374	0
bin	376	0
bin	378	0
bin	380	0
bin	382	0
bin	384	0
statistic ARPTest.switch1.eth[0].queue flowQueueingTime:histogram
field count 0
field mean -nan
field stddev nan
field min nan
field max nan
field sum 0
field sqrsum 0
attr interpolationmode none
attr recordingmode histogram
attr source queueingTime(demuxFlow(packetPulled))
attr title "flow queueing times"
attr unit s
bin	-inf	0
bin	0	0
bin	1	0
scalar ARPTest.switch1.eth[0].queue incomingPackets:count 2
attr recordingmode count
attr source packetPushStarted
attr title "incoming packets, count"
attr unit pk
scalar ARPTest.switch1.eth[0].queue incomingPacketLengths:sum 670
attr interpolationmode none
attr recordingmode sum
attr source packetLength(packetPushStarted)
attr title "incoming packet lengths, sum"
attr unit b
statistic ARPTest.switch1.eth[0].queue incomingPacketLengths:histogram
field count 2
field mean 335
field stddev 45.254833995939
field min 303
field max 367
field sum 670
field sqrsum 226498
attr interpolationmode none
attr recordingmode histogram
attr source packetLength(packetPushStarted)
attr title "incoming packet lengths"
attr unit b
bin	-inf	0
bin	286	0
bin	288	0
bin	290	0
bin	292	0
bin	294	0
bin	296	0
bin	298	0
bin	300	0
bin	302	1
bin	304	0
bin	306	0
bin	308	0
bin	310	0
bin	312	0
bin	314	0
bin	316	0
bin	318	0
bin	320	0
bin	322	0
bin	324	0
bin	326	0
bin	328	0
bin	330	0
bin	332	0
bin	334	0
bin	336	0
bin	338	0
bin	340	0
bin	342	0
bin	344	0
bin	346	0
bin	348	0
bin	350	0
bin	352	0
bin	354	0
bin	356	0
bin	358	0
bin	360	0
bin	362	0
bin	364	0
bin	366	1
bin	368	0
bin	370	0
bin	372	0
bin	374	0
bin	376	0
bin	378	0
bin	380	0
bin	382	0
bin	384	0
scalar ARPTest.switch1.eth[0].queue droppedPacketsQueueOverflow:count 0
attr interpolationmode none
attr recordingmode count
attr source packetDropReasonIsQueueOverflow(packetDropped)
attr title "dropped packets: queue overflow, count"
attr unit pk
scalar ARPTest.switch1.eth[0].queue droppedPacketLengthsQueueOverflow:sum 0
attr interpolationmode none
attr recordingmode sum
attr source packetLength(packetDropReasonIsQueueOverflow(packetDropped))
attr title "dropped packet lengths: queue overflow, sum"
attr unit b
par ARPTest.switch1.eth[0].mac typename "\"inet.linklayer.ethernet.basic.EthernetMac\""
par ARPTest.switch1.eth[0].mac interfaceTableModule "\"ARPTest.switch1.interfaceTable\""
par ARPTest.switch1.eth[0].mac displayStringTextFormat "\"rate: %b\\nsent: %s, rcvd: %r\\nqueue: %q, drop: %d\""
par ARPTest.switch1.eth[0].mac sendRawBytes false
par ARPTest.switch1.eth[0].mac promiscuous true
par ARPTest.switch1.eth[0].mac duplexMode true
par ARPTest.switch1.eth[0].mac mtu 1500B
attr unit B
par ARPTest.switch1.eth[0].mac fcsMode "\"declared\""
attr enum declared,computed
par ARPTest.switch1.eth[0].mac stopOperationExtraTime -1s
attr unit s
par ARPTest.switch1.eth[0].mac stopOperationTimeout 2s
attr unit s
scalar ARPTest.switch1.eth[0].mac "simulated time" 0.837
scalar ARPTest.switch1.eth[0].mac full-duplex 1
scalar ARPTest.switch1.eth[0].mac "frames/sec sent" 2.389486260454
scalar ARPTest.switch1.eth[0].mac "frames/sec rcvd" 2.389486260454
scalar ARPTest.switch1.eth[0].mac "bits/sec sent" 1223.4169653524
scalar ARPTest.switch1.eth[0].mac "bits/sec rcvd" 802.86738351254
scalar ARPTest.switch1.eth[0].mac "rx channel idle (%)" 99.999904659498
scalar ARPTest.switch1.eth[0].mac "rx channel utilization (%)" 9.5340501792115e-05
scalar ARPTest.switch1.eth[0].mac rxPausePkUnits:count 0
attr interpolationmode none
attr recordingmode count
attr title "pause units received, count"
scalar ARPTest.switch1.eth[0].mac rxPausePkUnits:sum 0
attr interpolationmode none
attr recordingmode sum
attr title "pause units received, sum"
scalar ARPTest.switch1.eth[0].mac txPausePkUnits:count 0
attr interpolationmode none
attr recordingmode count
attr title "pause units sent, count"
scalar ARPTest.switch1.eth[0].mac txPausePkUnits:sum 0
attr interpolationmode none
attr recordingmode sum
attr title "pause units sent, sum"
scalar ARPTest.switch1.eth[0].mac rxPkOk:count 2
attr interpolationmode none
attr recordingmode count
attr source rxPkOk
attr title "packets received OK, count"
scalar ARPTest.switch1.eth[0].mac rxPkOk:sum(packetBytes) 84
attr interpolationmode none
attr recordingmode sum(packetBytes)
attr source rxPkOk
attr title "packets received OK, sum(packetBytes)"
scalar ARPTest.switch1.eth[0].mac txPk:count 2
attr interpolationmode none
attr recordingmode count
attr source packetSentToLower
attr title "packets transmitted, count"
scalar ARPTest.switch1.eth[0].mac txPk:sum(packetBytes) 128
attr interpolationmode none
attr recordingmode sum(packetBytes)
attr source packetSentToLower
attr title "packets transmitted, sum(packetBytes)"
scalar ARPTest.switch1.eth[0].mac packetReceivedFromUpper:count 2
attr interpolationmode none
attr recordingmode count
attr source packetReceivedFromUpper
attr title "packet bytes from higher layer, count"
scalar ARPTest.switch1.eth[0].mac packetReceivedFromUpper:sum(packetBytes) 84
attr interpolationmode none
attr recordingmode sum(packetBytes)
attr source packetReceivedFromUpper
attr title "packet bytes from higher layer, sum(packetBytes)"
scalar ARPTest.switch1.eth[0].mac passedUpPk:count 2
attr interpolationmode none
attr recordingmode count
attr source packetSentToUpper
attr title "packets passed to higher layer, count"
scalar ARPTest.switch1.eth[0].mac passedUpPk:sum(packetBytes) 84
attr interpolationmode none
attr recordingmode sum(packetBytes)
attr source packetSentToUpper
attr title "packets passed to higher layer, sum(packetBytes)"
scalar ARPTest.switch1.eth[0].mac packetDropIncorrectlyReceived:count 0
attr interpolationmode none
attr recordingmode count
attr source packetDropReasonIsIncorrectlyReceived(packetDropped)
attr title "packet drop: incorrectly received, count"
scalar ARPTest.switch1.eth[0].mac packetDropIncorrectlyReceived:sum(packetBytes) 0
attr interpolationmode none
attr recordingmode sum(packetBytes)
attr source packetDropReasonIsIncorrectlyReceived(packetDropped)
attr title "packet drop: incorrectly received, sum(packetBytes)"
scalar ARPTest.switch1.eth[0].mac packetDropInterfaceDown:count 0
attr interpolationmode none
attr recordingmode count
attr source packetDropReasonIsInterfaceDown(packetDropped)
attr title "packet drop: interface down, count"
scalar ARPTest.switch1.eth[0].mac packetDropInterfaceDown:sum(packetBytes) 0
attr interpolationmode none
attr recordingmode sum(packetBytes)
attr source packetDropReasonIsInterfaceDown(packetDropped)
attr title "packet drop: interface down, sum(packetBytes)"
scalar ARPTest.switch1.eth[0].mac packetDropNotAddressedToUs:count 0
attr interpolationmode none
attr recordingmode count
attr source packetDropReasonIsNotAddressedToUs(packetDropped)
attr title "packet drop: not addressed to us, count"
scalar ARPTest.switch1.eth[0].mac packetDropNotAddressedToUs:sum(packetBytes) 0
attr interpolationmode none
attr recordingmode sum(packetBytes)
attr source packetDropReasonIsNotAddressedToUs(packetDropped)
attr title "packet drop: not addressed to us, sum(packetBytes)"
par ARPTest.switch1.eth[0] typename "\"inet.linklayer.ethernet.EthernetInterface\""
par ARPTest.switch1.eth[0] displayStringTextFormat "\"%a (%i)\\n%m\""
par ARPTest.switch1.eth[0] recordPcap false
par ARPTest.switch1.eth[0] numPcapRecorders 0
par ARPTest.switch1.eth[0] interfaceTableModule "\"ARPTest.switch1.interfaceTable\""
par ARPTest.switch1.eth[0] protocol "\"ethernetmac\""
par ARPTest.switch1.eth[0] address "\"0A-AA-00-00-00-01\""
attr mutable ""
par ARPTest.switch1.eth[0] duplexMode true
par ARPTest.switch1.eth[0] csmacdSupport false
par ARPTest.switch1.eth[0] bitrate 0bps
attr unit bps
par ARPTest.switch1.eth[0] fcsMode "\"declared\""
attr enum declared,computed
scalar ARPTest.switch1.eth[0] packetDropInterfaceDown:count 0
attr interpolationmode none
attr recordingmode count
attr source packetDropReasonIsInterfaceDown(packetDropped)
attr title "packet drops: interface down, count"
scalar ARPTest.switch1.eth[0] packetDropInterfaceDown:sum(packetBytes) 0
attr interpolationmode none
attr recordingmode sum(packetBytes)
attr source packetDropReasonIsInterfaceDown(packetDropped)
attr title "packet drops: interface down, sum(packetBytes)"
scalar ARPTest.switch1.eth[0] packetDropNoCarrier:count 0
attr interpolationmode none
attr recordingmode count
attr source packetDropReasonIsNoCarrier(packetDropped)
attr title "packet drops: no carrier, count"
scalar ARPTest.switch1.eth[0] packetDropNoCarrier:sum(packetBytes) 0
attr interpolationmode none
attr recordingmode sum(packetBytes)
attr source packetDropReasonIsNoCarrier(packetDropped)
attr title "packet drops: no carrier, sum(packetBytes)"
par ARPTest.switch1.eth[1].mac.phys$o.channel typename "\"ned.IdealChannel\""
par ARPTest.switch1.eth[1].phys$i.channel typename "\"ned.IdealChannel\""
par ARPTest.switch1.eth[1].upperLayerIn.channel typename "\"ned.IdealChannel\""
par ARPTest.switch1.eth[1].mac.upperLayerOut.channel typename "\"ned.IdealChannel\""
par ARPTest.switch1.eth[1].queue typename "\"inet.linklayer.ethernet.common.EthernetQueue\""
par ARPTest.switch1.eth[1].queue displayStringTextFormat "\"contains %p pk (%l) pushed %u\\npulled %o removed %r dropped %d\""
par ARPTest.switch1.eth[1].queue packetCapacity 1000
par ARPTest.switch1.eth[1].queue dataCapacity -1b
attr unit b
par ARPTest.switch1.eth[1].queue dropperClass "\"inet::queueing::PacketAtCollectionEndDropper\""
par ARPTest.switch1.eth[1].queue comparatorClass "\"inet::EthernetFrameTypeComparator\""
par ARPTest.switch1.eth[1].queue bufferModule "\"\""
scalar ARPTest.switch1.eth[1].queue queueLength:last 0
attr autoWarmupFilter false
attr interpolationmode sample-hold
attr recordingmode last
attr source "warmup(atomic(constant0(packetPushEnded) + count(packetPushStarted) - count(packetPulled) - count(packetRemoved) - count(packetDropped)))"
attr title "queue length, last"
attr unit pk
scalar ARPTest.switch1.eth[1].queue queueLength:max 0
attr autoWarmupFilter false
attr interpolationmode sample-hold
attr recordingmode max
attr source "warmup(atomic(constant0(packetPushEnded) + count(packetPushStarted) - count(packetPulled) - count(packetRemoved) - count(packetDropped)))"
attr title "queue length, max"
attr unit pk
scalar ARPTest.switch1.eth[1].queue queueLength:timeavg 0
attr autoWarmupFilter false
attr interpolationmode sample-hold
attr recordingmode timeavg
attr source "warmup(atomic(constant0(packetPushEnded) + count(packetPushStarted) - count(packetPulled) - count(packetRemoved) - count(packetDropped)))"
attr title "queue length, timeavg"
attr unit pk
scalar ARPTest.switch1.eth[1].queue queueBitLength:last 0
attr autoWarmupFilter false
attr interpolationmode sample-hold
attr recordingmode last
attr source "warmup(atomic(constant0(packetPushEnded) + sum(packetLength(packetPushStarted)) - sum(packetLength(packetPulled)) - sum(packetLength(packetRemoved)) - sum(packetLength(packetDropped))))"
attr title "queue bit length, last"
attr unit b
scalar ARPTest.switch1.eth[1].queue queueBitLength:max 0
attr autoWarmupFilter false
attr interpolationmode sample-hold
attr recordingmode max
attr source "warmup(atomic(constant0(packetPushEnded) + sum(packetLength(packetPushStarted)) - sum(packetLength(packetPulled)) - sum(packetLength(packetRemoved)) - sum(packetLength(packetDropped))))"
attr title "queue bit length, max"
attr unit b
scalar ARPTest.switch1.eth[1].queue queueBitLength:timeavg 0
attr autoWarmupFilter false
attr interpolationmode sample-hold
attr recordingmode timeavg
attr source "warmup(atomic(constant0(packetPushEnded) + sum(packetLength(packetPushStarted)) - sum(packetLength(packetPulled)) - sum(packetLength(packetRemoved)) - sum(packetLength(packetDropped))))"
attr title "queue bit length, timeavg"
attr unit b
statistic ARPTest.switch1.eth[1].queue queueingTime:histogram
field count 2
field mean 0
field stddev 0
field min 0
field max 0
field sum 0
field sqrsum 0
attr interpolationmode none
attr recordingmode histogram
attr source queueingTime(packetPulled)
attr title "queueing times"
attr unit s
bin	-inf	0
bin	-0.5	0
bin	-0.48	0
bin	-0.46	0
bin	-0.44	0
bin	-0.42	0
bin	-0.4	0
bin	-0.38	0
bin	-0.36	0
bin	-0.34	0
bin	-0.32	0
bin	-0.3	0
bin	-0.28	0
bin	-0.26	0
bin	-0.24	0
bin	-0.22	0
bin	-0.2	0
bin	-0.18	0
bin	-0.16	0
bin	-0.14	0
bin	-0.12	0
bin	-0.1	0
bin	-0.08	0
bin	-0.06	0
bin	-0.04	0
bin	-0.02	0
bin	0	2
bin	0.02	0
bin	0.04	0
bin	0.06	0
bin	0.08	0
bin	0.1	0
bin	0.12	0
bin	0.14	0
bin	0.16	0
bin	0.18	0
bin	0.2	0
bin	0.22	0
bin	0.24	0
bin	0.26	0
bin	0.28	0
bin	0.3	0
bin	0.32	0
bin	0.34	0
bin	0.36	0
bin	0.38	0
bin	0.4	0
bin	0.42	0
bin	0.44	0
bin	0.46	0
bin	0.48	0
bin	0.5	0
scalar ARPTest.switch1.eth[1].queue outgoingPackets:count 2
attr recordingmode count
attr source packetPulled
attr title "outgoing packets, count"
attr unit pk
scalar ARPTest.switch1.eth[1].queue outgoingPacketLengths:sum 670
attr interpolationmode none
attr recordingmode sum
attr source packetLength(packetPulled)
attr title "outgoing packet lengths, sum"
attr unit b
statistic ARPTest.switch1.eth[1].queue outgoingPacketLengths:histogram
field count 2
field mean 335
field stddev 45.254833995939
field min 303
field max 367
field sum 670
field sqrsum 226498
attr interpolationmode none
attr recordingmode histogram
attr source packetLength(packetPulled)
attr title "outgoing packet lengths"
attr unit b
bin	-inf	0
bin	286	0
bin	288	0
bin	290	0
bin	292	0
bin	294	0
bin	296	0
bin	298	0
bin	300	0
bin	302	1
bin	304	0
bin	306	0
bin	308	0
bin	310	0
bin	312	0
bin	314	0
bin	316	0
bin	318	0
bin	320	0
bin	322	0
bin	324	0
bin	326	0
bin	328	0
bin	330	0
bin	332	0
bin	334	0
bin	336	0
bin	338	0
bin	340	0
bin	342	0
bin	344	0
bin	346	0
bin	348	0
bin	350	0
bin	352	0
bin	354	0
bin	356	0
bin	358	0
bin	360	0
bin	362	0
bin	364	0
bin	366	1
bin	368	0
bin	370	0
bin	372	0
bin	374	0
bin	376	0
bin	378	0
bin	380	0
bin	382	0
bin	384	0
statistic ARPTest.switch1.eth[1].queue flowQueueingTime:histogram
field count 0
field mean -nan
field stddev nan
field min nan
field max nan
field sum 0
field sqrsum 0
attr interpolationmode none
attr recordingmode histogram
attr source queueingTime(demuxFlow(packetPulled))
attr title "flow queueing times"
attr unit s
bin	-inf	0
bin	0	0
bin	1	0
scalar ARPTest.switch1.eth[1].queue incomingPackets:count 2
attr recordingmode count
attr source packetPushStarted
attr title "incoming packets, count"
attr unit pk
scalar ARPTest.switch1.eth[1].queue incomingPacketLengths:sum 670
attr interpolationmode none
attr recordingmode sum
attr source packetLength(packetPushStarted)
attr title "incoming packet lengths, sum"
attr unit b
statistic ARPTest.switch1.eth[1].queue incomingPacketLengths:histogram
field count 2
field mean 335
field stddev 45.254833995939
field min 303
field max 367
field sum 670
field sqrsum 226498
attr interpolationmode none
attr recordingmode histogram
attr source packetLength(packetPushStarted)
attr title "incoming packet lengths"
attr unit b
bin	-inf	0
bin	286	0
bin	288	0
bin	290	0
bin	292	0
bin	294	0
bin	296	0
bin	298	0
bin	300	0
bin	302	1
bin	304	0
bin	306	0
bin	308	0
bin	310	0
bin	312	0
bin	314	0
bin	316	0
bin	318	0
bin	320	0
bin	322	0
bin	324	0
bin	326	0
bin	328	0
bin	330	0
bin	332	0
bin	334	0
bin	336	0
bin	338	0
bin	340	0
bin	342	0
bin	344	0
bin	346	0
bin	348	0
bin	350	0
bin	352	0
bin	354	0
bin	356	0
bin	358	0
bin	360	0
bin	362	0
bin	364	0
bin	366	1
bin	368	0
bin	370	0
bin	372	0
bin	374	0
bin	376	0
bin	378	0
bin	380	0
bin	382	0
bin	384	0
scalar ARPTest.switch1.eth[1].queue droppedPacketsQueueOverflow:count 0
attr interpolationmode none
attr recordingmode count
attr source packetDropReasonIsQueueOverflow(packetDropped)
attr title "dropped packets: queue overflow, count"
attr unit pk
scalar ARPTest.switch1.eth[1].queue droppedPacketLengthsQueueOverflow:sum 0
attr interpolationmode none
attr recordingmode sum
attr source packetLength(packetDropReasonIsQueueOverflow(packetDropped))
attr title "dropped packet lengths: queue overflow, sum"
attr unit b
par ARPTest.switch1.eth[1].mac typename "\"inet.linklayer.ethernet.basic.EthernetMac\""
par ARPTest.switch1.eth[1].mac interfaceTableModule "\"ARPTest.switch1.interfaceTable\""
par ARPTest.switch1.eth[1].mac displayStringTextFormat "\"rate: %b\\nsent: %s, rcvd: %r\\nqueue: %q, drop: %d\""
par ARPTest.switch1.eth[1].mac sendRawBytes false
par ARPTest.switch1.eth[1].mac promiscuous true
par ARPTest.switch1.eth[1].mac duplexMode true
par ARPTest.switch1.eth[1].mac mtu 1500B
attr unit B
par ARPTest.switch1.eth[1].mac fcsMode "\"declared\""
attr enum declared,computed
par ARPTest.switch1.eth[1].mac stopOperationExtraTime -1s
attr unit s
par ARPTest.switch1.eth[1].mac stopOperationTimeout 2s
attr unit s
scalar ARPTest.switch1.eth[1].mac "simulated time" 0.837
scalar ARPTest.switch1.eth[1].mac full-duplex 1
scalar ARPTest.switch1.eth[1].mac "frames/sec sent" 2.389486260454
scalar ARPTest.switch1.eth[1].mac "frames/sec rcvd" 2.389486260454
scalar ARPTest.switch1.eth[1].mac "bits/sec sent" 1223.4169653524
scalar ARPTest.switch1.eth[1].mac "bits/sec rcvd" 802.86738351254
scalar ARPTest.switch1.eth[1].mac "rx channel idle (%)" 99.999904659498
scalar ARPTest.switch1.eth[1].mac "rx channel utilization (%)" 9.5340501792115e-05
scalar ARPTest.switch1.eth[1].mac rxPausePkUnits:count 0
attr interpolationmode none
attr recordingmode count
attr title "pause units received, count"
scalar ARPTest.switch1.eth[1].mac rxPausePkUnits:sum 0
attr interpolationmode none
attr recordingmode sum
attr title "pause units received, sum"
scalar ARPTest.switch1.eth[1].mac txPausePkUnits:count 0
attr interpolationmode none
attr recordingmode count
attr title "pause units sent, count"
scalar ARPTest.switch1.eth[1].mac txPausePkUnits:sum 0
attr interpolationmode none
attr recordingmode sum
attr title "pause units sent, sum"
scalar ARPTest.switch1.eth[1].mac rxPkOk:count 2
attr interpolationmode none
attr recordingmode count
attr source rxPkOk
attr title "packets received OK, count"
scalar ARPTest.switch1.eth[1].mac rxPkOk:sum(packetBytes) 84
attr interpolationmode none
attr recordingmode sum(packetBytes)
attr source rxPkOk
attr title "packets received OK, sum(packetBytes)"
scalar ARPTest.switch1.eth[1].mac txPk:count 2
attr interpolationmode none
attr recordingmode count
attr source packetSentToLower
attr title "packets transmitted, count"
scalar ARPTest.switch1.eth[1].mac txPk:sum(packetBytes) 128
attr interpolationmode none
attr recordingmode sum(packetBytes)
attr source packetSentToLower
attr title "packets transmitted, sum(packetBytes)"
scalar ARPTest.switch1.eth[1].mac packetReceivedFromUpper:count 2
attr interpolationmode none
attr recordingmode count
attr source packetReceivedFromUpper
attr title "packet bytes from higher layer, count"
scalar ARPTest.switch1.eth[1].mac packetReceivedFromUpper:sum(packetBytes) 84
attr interpolationmode none
attr recordingmode sum(packetBytes)
attr source packetReceivedFromUpper
attr title "packet bytes from higher layer, sum(packetBytes)"
scalar ARPTest.switch1.eth[1].mac passedUpPk:count 2
attr interpolationmode none
attr recordingmode count
attr source packetSentToUpper
attr title "packets passed to higher layer, count"
scalar ARPTest.switch1.eth[1].mac passedUpPk:sum(packetBytes) 84
attr interpolationmode none
attr recordingmode sum(packetBytes)
attr source packetSentToUpper
attr title "packets passed to higher layer, sum(packetBytes)"
scalar ARPTest.switch1.eth[1].mac packetDropIncorrectlyReceived:count 0
attr interpolationmode none
attr recordingmode count
attr source packetDropReasonIsIncorrectlyReceived(packetDropped)
attr title "packet drop: incorrectly received, count"
scalar ARPTest.switch1.eth[1].mac packetDropIncorrectlyReceived:sum(packetBytes) 0
attr interpolationmode none
attr recordingmode sum(packetBytes)
attr source packetDropReasonIsIncorrectlyReceived(packetDropped)
attr title "packet drop: incorrectly received, sum(packetBytes)"
scalar ARPTest.switch1.eth[1].mac packetDropInterfaceDown:count 0
attr interpolationmode none
attr recordingmode count
attr source packetDropReasonIsInterfaceDown(packetDropped)
attr title "packet drop: interface down, count"
scalar ARPTest.switch1.eth[1].mac packetDropInterfaceDown:sum(packetBytes) 0
attr interpolationmode none
attr recordingmode sum(packetBytes)
attr source packetDropReasonIsInterfaceDown(packetDropped)
attr title "packet drop: interface down, sum(packetBytes)"
scalar ARPTest.switch1.eth[1].mac packetDropNotAddressedToUs:count 0
attr interpolationmode none
attr recordingmode count
attr source packetDropReasonIsNotAddressedToUs(packetDropped)
attr title "packet drop: not addressed to us, count"
scalar ARPTest.switch1.eth[1].mac packetDropNotAddressedToUs:sum(packetBytes) 0
attr interpolationmode none
attr recordingmode sum(packetBytes)
attr source packetDropReasonIsNotAddressedToUs(packetDropped)
attr title "packet drop: not addressed to us, sum(packetBytes)"
par ARPTest.switch1.eth[1] typename "\"inet.linklayer.ethernet.EthernetInterface\""
par ARPTest.switch1.eth[1] displayStringTextFormat "\"%a (%i)\\n%m\""
par ARPTest.switch1.eth[1] recordPcap false
par ARPTest.switch1.eth[1] numPcapRecorders 0
par ARPTest.switch1.eth[1] interfaceTableModule "\"ARPTest.switch1.interfaceTable\""
par ARPTest.switch1.eth[1] protocol "\"ethernetmac\""
par ARPTest.switch1.eth[1] address "\"0A-AA-00-00-00-02\""
attr mutable ""
par ARPTest.switch1.eth[1] duplexMode true
par ARPTest.switch1.eth[1] csmacdSupport false
par ARPTest.switch1.eth[1] bitrate 0bps
attr unit bps
par ARPTest.switch1.eth[1] fcsMode "\"declared\""
attr enum declared,computed
scalar ARPTest.switch1.eth[1] packetDropInterfaceDown:count 0
attr interpolationmode none
attr recordingmode count
attr source packetDropReasonIsInterfaceDown(packetDropped)
attr title "packet drops: interface down, count"
scalar ARPTest.switch1.eth[1] packetDropInterfaceDown:sum(packetBytes) 0
attr interpolationmode none
attr recordingmode sum(packetBytes)
attr source packetDropReasonIsInterfaceDown(packetDropped)
attr title "packet drops: interface down, sum(packetBytes)"
scalar ARPTest.switch1.eth[1] packetDropNoCarrier:count 0
attr interpolationmode none
attr recordingmode count
attr source packetDropReasonIsNoCarrier(packetDropped)
attr title "packet drops: no carrier, count"
scalar ARPTest.switch1.eth[1] packetDropNoCarrier:sum(packetBytes) 0
attr interpolationmode none
attr recordingmode sum(packetBytes)
attr source packetDropReasonIsNoCarrier(packetDropped)
attr title "packet drops: no carrier, sum(packetBytes)"
par ARPTest.switch1 typename "\"inet.node.ethernet.EthernetSwitch\""
par ARPTest.switch1 recordPcap false
par ARPTest.switch1 numPcapRecorders 0
par ARPTest.switch1 numApps 0
par ARPTest.switch1 hasStatus false
par ARPTest.switch1 hasStp false
par ARPTest.switch1 hasGptp false
par ARPTest.switch1 hasCutthroughSwitching false
par ARPTest.switch1 fcsMode "\"declared\""
attr enum declared,computed
par ARPTest.switch1 spanningTreeProtocol "\"Stp\""
par ARPTest.switch1 numEthInterfaces 0
par ARPTest.configurator typename "\"inet.networklayer.configurator.ipv4.Ipv4NetworkConfigurator\""
par ARPTest.configurator minLinkWeight 0.001
par ARPTest.configurator configureIsolatedNetworksSeparatly false
par ARPTest.configurator config "<config>...</config> at /home/cossim/COSSIM/OMNETPP_COSSIM_workspace/OMNET_WORKSPACE/test/simulations//config1.xml:3"
par ARPTest.configurator assignAddresses true
par ARPTest.configurator assignUniqueAddresses true
par ARPTest.configurator assignDisjunctSubnetAddresses true
par ARPTest.configurator addStaticRoutes false
par ARPTest.configurator addDefaultRoutes true
par ARPTest.configurator addSubnetRoutes true
par ARPTest.configurator addDirectRoutes true
par ARPTest.configurator optimizeRoutes true
par ARPTest.configurator dumpTopology false
par ARPTest.configurator dumpLinks false
par ARPTest.configurator dumpAddresses false
par ARPTest.configurator dumpRoutes false
par ARPTest.configurator dumpConfig "\"\""
par ARPTest.node0 typename "\"HLANode.Txc0\""
par ARPTest.node0 RXPacketTime 0.001
par ARPTest.node0 nodeNo 0
par ARPTest.node0 sendInitialMessage false
scalar ARPTest.node0 "#Total Bytes Sent" 130
scalar ARPTest.node0 "#total Bytes Received" 130
scalar ARPTest.node0 "#Simulation Time (sec)" 0.837
scalar ARPTest.node0 "#Bw sent utilization in KBytes per sec" 0
par ARPTest.node1 typename "\"HLANode.Txc1\""
par ARPTest.node1 RXPacketTime 0.001
par ARPTest.node1 nodeNo 1
par ARPTest.node1 sendInitialMessage false
scalar ARPTest.node1 "#Total Bytes Sent" 130
scalar ARPTest.node1 "#total Bytes Received" 130
scalar ARPTest.node1 "#Simulation Time (sec)" 0.837
scalar ARPTest.node1 "#Bw sent utilization in KBytes per sec" 0
par ARPTest.syncnode typename "\"HLANode.SyncNode\""
par ARPTest.syncnode NumberOfHLANodes 2
par ARPTest.syncnode SynchTime 0.001
par ARPTest.syncnode sendInitialMessage false
par ARPTest typename "\"test.simulations.ARPTest\""

